37
 energy: -7.983587497632 gnorm: 0.000754236215 xtb: 6.5.0 (97a52f5)
C            0.86980964093302       -0.07023425337020       -0.11945100670217
C            2.35503469597470       -0.10710551607503       -0.05681632698630
C            3.04519329578206       -1.27985587591728       -0.00595995703813
C            4.45436804869958       -1.29472347982357        0.05891797539727
C            5.15723501198331       -0.14128094667626        0.07040051730030
N            4.51579339513730        1.08911612642692        0.02279480888308
C            3.11502218172020        1.09906675420309       -0.03388028634652
C            2.67510526846485        2.41417810566411       -0.03709580837335
C            3.80840198734848        3.23105052219852        0.01841842961387
C            3.94356925882007        4.65395296869963        0.07713345616875
C            2.85303546966004        5.53053737252462        0.05936674127240
C            3.04957645155264        6.88364463273439        0.13045394915584
C            4.33926257424180        7.39574202028550        0.22275576170058
C            5.41795847254101        6.55412073659098        0.24360000220981
C            5.25587639487548        5.16128790075680        0.17224644584945
N            6.37286571911551        4.35983000483079        0.19503004833902
C            6.24066141765564        3.04468845768156        0.11585904482621
C            7.48120771744147        2.27380239497528        0.09273854463060
C            8.71427056497055        2.80111621002401        0.45441047974385
C            9.66203196902145        1.80190910129919        0.28764394900347
C            8.98567264163748        0.68980356338883       -0.17664940283706
Cl           9.75486654180399       -0.83009653166418       -0.52241334697189
O            7.65848573030482        0.95981157696301       -0.30656711569983
C            4.95261474122094        2.42496983439908        0.04142447189933
H            0.44923931895853       -1.07355800764082       -0.19235808151371
H            0.53279414308991        0.49548691930845       -0.98854927896021
H            0.45663989653897        0.40099056749875        0.77284939412213
H            2.50493644302758       -2.21076767580147       -0.01512529316763
H            4.97168736986046       -2.23918729755689        0.09433709073237
H            6.22747917274708       -0.15385792384003        0.10717803021358
H            1.65143587613549        2.74236669459302       -0.05999581356582
H            1.85724705705123        5.12953702986154       -0.01057933113383
H            2.20568652361448        7.55349526134936        0.11605334692989
H            4.48795181466147        8.46162754730920        0.27902990082816
H            6.41618260399936        6.94855282223214        0.31585624758816
H            8.88886104095159        3.80568242324696        0.79982184251226
H           10.72040954845717        1.86715995931927        0.47508057037607
