37
 energy: -5.543440472189 gnorm: 0.089733188027 xtb: 6.5.0 (97a52f5)
C            0.91870054991153        0.12761802773061        0.18525355379359
C            2.34715901422584       -0.13682970357797        0.08065407232363
C            2.82299721606495       -1.37896148336294        0.00563180448873
C            4.14318071058156       -1.62157681600662       -0.08802082081023
C            4.99634264341566       -0.64354806728586       -0.10143317987213
N            4.62446274974032        0.61766004533376       -0.04349465988993
C            3.30522363366613        0.92791731198691        0.04866425202745
C            2.97257282251188        2.25066633652054        0.10137966256815
C            3.93783361180122        3.16574480725287        0.02850257275625
C            3.76496937398762        4.55919210320732        0.05837624223187
C            2.50471930755890        5.07784485049729        0.22778313285201
C            2.26999836674970        6.36694433030229        0.22755101491282
C            3.25947378173507        7.23555276938977        0.05254072593734
C            4.49147635926530        6.82631885220654       -0.11595205661388
C            4.83493566594314        5.49006373912020       -0.11594706584775
N            6.15815762304838        5.17386915256507       -0.30559637154276
C            6.43618238573756        3.94630100161975       -0.12377501399178
C            7.68712968265991        3.32840053905202       -0.33923511145215
C            8.80681084571109        3.87996744415652       -0.86348046905195
C            9.76128152856025        2.93946622315510       -0.91144885682849
C            9.24709282488095        1.79383268321534       -0.41722555153979
S           10.11540237083159        0.33555633113820       -0.29106117010482
C            7.96714352131521        2.01721297775295       -0.05502041660375
H           -1.87975635000422       -3.47024006415958        0.16728424332256
H            0.53648655492077        0.65104116009554       -0.66809383313166
H            0.66546407381314        0.65794692183730        1.08116043348006
H            1.63340849551864       -5.91699506463394       -0.10292871237742
H            9.19608316584613       -4.40745369430309       -0.51174118586566
H            6.56612381618086        1.32054600576894       -0.12066699366542
H           -1.96012528007023        4.36366114206777        0.66694655537690
H           -1.82524089376062        8.47721363179016       -1.06563946329986
H           -1.31400756452916       12.40107613539260        0.81971846548101
H            6.77639844266620       13.44908146782257       -0.13971719122295
H           11.38353650283165        7.57277893993723       -0.13789960495512
H            8.05813729921117        1.60951470552979        1.75242645631883
H           13.24441438098209       -1.60993798661059        3.56435447224905
H           12.40171078066010       -1.80245675564673       -0.54671993629246
