23
 energy: -4.690745955986 gnorm: 0.000737525165 xtb: 6.5.0 (97a52f5)
C            0.94498677274569       -0.06748146695550        0.35591460214401
C            2.40824414114408       -0.03962750188638        0.10474825850624
C            3.08939751477010        1.13152412401222        0.08750077918377
N            4.43250217494794        1.12680246250352       -0.14648820738189
C            5.18374216237005        2.37195275263510       -0.17818264168915
C            5.10969920236405       -0.07299775327196       -0.36956825472193
O            6.31842927495979       -0.03832966240938       -0.57949568929469
N            4.43415778186411       -1.26285463101558       -0.35017162460333
C            3.14881656551161       -1.23119331755777       -0.10809413461001
N            2.46828267374638       -2.49594239687876       -0.07148564455919
C            2.96076389983866       -3.66984216606470       -0.63604056928649
N            2.12432157019228       -4.62877636310144       -0.36988608984437
C            1.14279190080896       -4.04593103281854        0.35585887227897
N            1.32497647907865       -2.76408127306158        0.55768712245331
H            0.73833643759410       -0.35385793079778        1.38742769226070
H            0.45531756474660       -0.78935502081619       -0.29822933749995
H            0.49084951746664        0.90727980969067        0.17553096853239
H            2.59010511533357        2.06915619377612        0.25224757954249
H            5.03571352381815        2.92079848577708        0.74981345720715
H            4.85334636146854        2.98314006665023       -1.01573849353514
H            6.24438668577651        2.15547511404965       -0.29520956165311
H            3.87976388651562       -3.77139657010226       -1.19592524675602
H            0.28507879293833       -4.58891192235689        0.73744616332615
