36
 energy: -7.592583257636 gnorm: 0.000500267720 xtb: 6.5.0 (97a52f5)
C            1.11056680783775       -0.15108407986850       -0.12937429495606
C            2.58383998197382        0.02653648722687       -0.08261522422906
C            3.25871524069233        0.90014336325392        0.76223177633496
N            4.62089324446430        0.75697697628161        0.55469245862890
C            5.92452522426876        1.09480914509653        0.83568984864173
C            6.74676748684147        0.30969682500269        0.01954946085015
C            8.21327182350020        0.35145932221385        0.00702705773417
C            8.94047331026630        1.15009508324886        0.89047325131145
C           10.31425245014801        1.16752908605676        0.85620362052376
C           11.02316984933120        0.39023798715067       -0.06395755571362
C           12.49979659641509        0.41594608427416       -0.10514849380534
C           13.25055844563325        0.53223256531847        1.06724478247238
C           14.62706819695223        0.56008122588203        1.02580636709769
C           15.28655728873909        0.47464282690397       -0.18478866016706
C           14.56313543240529        0.35893636939403       -1.35571174085840
C           13.18661100598956        0.32852646307561       -1.31852298211903
C           10.29165577383908       -0.40920512258548       -0.94617559656634
C            8.91845064553925       -0.42759483324192       -0.90796928766361
N            6.03628731755875       -0.50957911306564       -0.77014196740393
N            4.76687160393596       -0.25771714400770       -0.46090159586490
C            3.50118536103360       -0.69096847572159       -0.83156702149177
H            0.59786873334936        0.79660972412744        0.03933197497675
H            0.78140450536913       -0.85435948375049        0.63647102781722
H            0.79374291721669       -0.53580292491079       -1.09949311171413
H            2.81339255502063        1.58053597472055        1.46483631460417
H            6.22474755581911        1.83723096809158        1.55147446254427
H            8.41684861442991        1.75891101139186        1.60591860078862
H           10.85870479227060        1.80172465089365        1.53406909324205
H           12.74093599836230        0.58275349469977        2.01373462695762
H           15.19108004469176        0.64741580978965        1.94009555657532
H           16.36358031051752        0.49868419137544       -0.21580134151085
H           15.07709272151864        0.29509638966617       -2.30090761227422
H           12.62644084080564        0.25537572617810       -2.23447908129098
H           10.81723404237004       -1.02869919033403       -1.65189412391842
H            8.36474657709705       -1.04972668438053       -1.58897309601793
H            3.29133670379585       -1.44981069946122       -1.56156749356073
