27
 energy: -5.935265627251 gnorm: 0.000826883872 xtb: 6.5.0 (97a52f5)
C            1.14691287060163       -0.23552558616875       -0.09075786396523
C            2.62380473209570       -0.08864574463334       -0.07313064199204
C            3.31918498393350        0.94917703708543        0.53585564642175
N            4.67638842696147        0.72304937961902        0.38164608460685
C            5.98604533154885        1.09063185298157        0.57908633973064
C            6.78927798118847        0.11096686767854       -0.01407326571013
C            8.25610215540683        0.11243447873363       -0.03387520565875
C            8.93556299484550       -0.89196813677084       -0.71920427602648
C           10.30927663952164       -0.92165106058897       -0.75337144907755
C           11.05531233224964        0.05519898318309       -0.10011294559095
C           12.45530568502911        0.02513619585843       -0.12986399596501
N           13.61681535984594       -0.00399577771404       -0.15544640368814
C           10.38034610234179        1.06111279026919        0.58581805544803
C            9.00622205118684        1.09052785305677        0.61913267290795
N            6.05941133570578       -0.85824063475386       -0.58212803111384
N            4.79757439080254       -0.50815022613682       -0.35515704413919
C            3.52308555394661       -0.99336605489188       -0.61041521348091
H            0.65818926110073        0.73905869353459       -0.08835839822712
H            0.80386464378287       -0.78878163995767        0.78380846514755
H            0.81924411666185       -0.77249554528740       -0.98127382703031
H            2.89292749300935        1.79204247941039        1.04841214506462
H            6.30184807208067        1.97804746884999        1.09508038623596
H            8.36263772053876       -1.64909442372256       -1.22508536813173
H           10.82411761448862       -1.70295913329221       -1.28589254339293
H           10.95221406269029        1.81897153772996        1.09360280274384
H            8.50266450375783        1.87352747031956        1.15730764785819
H            3.29651358467584       -1.90629912437947       -1.12810377298445
