28
 energy: -5.900437581702 gnorm: 0.000811112548 xtb: 6.5.0 (97a52f5)
C            1.08554021795131       -0.10640919510236       -0.15032472710425
C            2.56180172348140        0.04621212356539       -0.14162525750455
C            3.25622926196525        1.06937474856254        0.49200415462240
N            4.61192170513847        0.85400628664997        0.32044229286761
C            5.91988560206442        1.22506259993504        0.51944825062042
C            6.72444859594066        0.26992774675938       -0.10821919062143
C            8.19040827345095        0.28233428558734       -0.14372590179126
C            8.93993888986953        1.27273372498209        0.49216043798181
C           10.31295987116334        1.25312081109431        0.43969772059329
C           10.97433050122570        0.24873734543046       -0.24601185517621
N           12.43002801581092        0.22952765422523       -0.29489854836964
O           13.06001098282108        1.12479986560254        0.29600892607176
O           12.99457309623776       -0.68182031488735       -0.92587170163582
C           10.24173131696367       -0.73956930830061       -0.88021779481663
C            8.86901442107524       -0.72300752510957       -0.82947377388745
N            5.99595255039074       -0.68798692590236       -0.69762477520416
N            4.73414164489721       -0.35361936012780       -0.45251621213838
C            3.46117227523638       -0.83759490273428       -0.71281654185845
H            0.59394810318443        0.86604070738442       -0.18507719166635
H            0.74619673488285       -0.62602166530613        0.74595265442035
H            0.75765856481373       -0.67864553084913       -1.01836444292079
H            2.83046734415177        1.89399016090059        1.03428026132313
H            6.23172823348213        2.10027134971591        1.05893421486112
H            8.43774190876946        2.05715790272465        1.02966071549263
H           10.89422309793248        2.01515498833470        0.93049739934743
H           10.76611300222812       -1.51664787821217       -1.40981590630243
H            8.29671867678268       -1.49015358866574       -1.32103769797790
H            3.23582538808653       -1.73685610625551       -1.25455550922600
