36
 energy: -7.031166820815 gnorm: 0.000803919740 xtb: 6.5.0 (97a52f5)
C            2.08600623571653       -0.25642804297216       -0.09742976485206
C            0.61235880846892       -0.22831073443250       -0.14824408848712
C           -0.21828846611199       -1.29886215632869       -0.15141819209560
N           -1.55914835258734       -1.03162092610214       -0.19805658630024
C           -1.80569948343702        0.24546417690774       -0.22867544808427
N           -3.06493644681554        0.83432208564609       -0.27505826814857
C           -4.27709939431739        0.15686977886099       -0.18777929152703
O           -4.33753200390661       -1.05662481955085       -0.06261832723886
C           -5.50266572418468        0.96610461978113       -0.21390491924284
C           -5.54120835514664        2.12258082401649       -0.97497939921610
O           -4.50400502970819        2.44596253163625       -1.84457141285518
C           -6.66618503100289        3.04678391086543       -0.95179333516408
C           -6.65875139221437        4.12507978535158       -1.83738956796612
C           -7.69994047283113        5.02312909488773       -1.87337625771208
C           -8.77509555781775        4.86613845382659       -1.02196453752785
C           -8.79545427910437        3.80706716683179       -0.13386444859985
C           -7.75645603735483        2.91245173030101       -0.09706983532135
S           -7.85835062986711        1.58723189307914        1.09286221592921
O           -9.19031577089392        0.90646604783690        0.93644195973793
O           -7.48619205317504        2.14524936505556        2.43930561577451
N           -6.60543748536587        0.53345421697216        0.55100027938062
C           -6.63521325973145       -0.70302368671704        1.27842883888422
S           -0.34482625198130        1.21528560453223       -0.20438275006201
H            2.46849853246980       -1.26247920920020       -0.27482679350344
H            2.44416596694347        0.07521997141729        0.87804489795233
H            2.50950139326985        0.40350563783430       -0.85570089775656
H            0.13679450754425       -2.32057037988796       -0.11823638305326
H           -3.08933283670313        1.85244979791329       -0.28682648646495
H           -4.03039793372757        1.64006486724872       -2.14420750277519
H           -5.81541699373419        4.23731316206200       -2.49786739422114
H           -7.67685095653807        5.84842102747584       -2.56623813143840
H           -9.59380046706549        5.56650949918117       -1.04763634930558
H           -9.62862871206225        3.67455010241563        0.53804484527008
H           -7.66122207370830       -0.95668339925343        1.55137023232431
H           -6.02988891703869       -0.61317182969884        2.18166062266907
H           -6.22909507628000       -1.50169016779233        0.65582686099730
