35
 energy: -8.179011824157 gnorm: 0.000737266529 xtb: 6.5.0 (97a52f5)
C            2.16632397171930       -0.47443068371853       -0.52899153671881
C            0.72218448960098       -0.32555559522783       -0.26703986026313
C           -0.03800691222278       -1.15155997302899        0.49355868261146
N           -1.36450639315025       -0.83259897025742        0.61218047615191
C           -1.66082299369776        0.25034845598304       -0.04817394313709
N           -2.91312986353761        0.85165690690616       -0.13125087490583
C           -4.10454991414735        0.39992577014705        0.43910127384773
O           -4.16204304162644       -0.65322220718987        1.07812570903365
C           -5.29472559283287        1.18834976662222        0.26696648467880
C           -5.33474097470443        2.37962321610825       -0.50653966653808
O           -4.33076562283069        2.83518305066637       -1.08840076673150
C           -6.62027758470355        3.09311571529317       -0.66078818200106
C           -6.77119708380436        3.99301303105673       -1.71519246739388
C           -7.95215587819310        4.67714566893395       -1.89959805774467
C           -9.00864493609510        4.48027208336266       -1.03048037691133
C           -8.87010108787934        3.59849846079152        0.02637881660832
C           -7.69238364662403        2.91783868654862        0.21010478595089
S           -7.56049709466669        1.80991285053055        1.61113132098336
O           -8.90703096230126        1.18420772405022        1.87230357930123
O           -6.88857488694431        2.55192230293003        2.73733227374955
N           -6.48622828425011        0.69053137850989        0.85950586216437
C           -7.07853984259293       -0.53960437953207        0.41388237827957
S           -0.28106924474816        0.95270841695943       -0.87944464393521
H            2.40571981848764       -1.49412085262665       -0.83399178792367
H            2.74896920962220       -0.24101750104366        0.36326763295011
H            2.48564271875444        0.19856166436154       -1.32590114035099
H            0.36640838762912       -2.02278739785576        0.99049505291246
H           -2.96336029710032        1.71001538922003       -0.66712001833970
H           -5.94210390010642        4.14192794611549       -2.38575009368950
H           -8.05264640425197        5.36707274934727       -2.72157512182632
H           -9.93398940369737        5.01437808211762       -1.17171208332912
H           -9.68246035547481        3.43930822890764        0.71689263157401
H           -7.82777649225094       -0.87646596222932        1.13124034363224
H           -6.30909021709382       -1.30715377503344        0.32358298745613
H           -7.55568968428397       -0.39839024772309       -0.55642967014683
