35
 energy: -6.433624191121 gnorm: 0.000668877507 xtb: 6.5.0 (97a52f5)
C            1.42526270691558       -0.45766756518233       -0.22486762172932
C            2.78417123241093       -0.16397946676631        0.28240294654854
C            3.17032357248669        0.97655465462837        0.89970531260840
S            4.84836170981647        0.90785893099474        1.34022324224699
C            5.02488534712935       -0.70952882284161        0.66854025689938
N            3.84291304236734       -1.06359360343324        0.17947744247354
B            3.65975938662992       -2.42899979357368       -0.48255386663377
F            3.25630998016829       -2.22456955326537       -1.78562581485923
F            2.70372201059884       -3.12558332301738        0.22706131884254
O            4.94439277689189       -3.12731589779840       -0.44250482774377
C            6.07511934191666       -2.60181491329024        0.11462678715666
C            7.26348930260624       -3.44536445784158        0.07292846401687
C            8.46556236720281       -3.02178918776586        0.63811177258376
C            9.57972834049562       -3.81908777656033        0.59748105041015
C            9.54327478500718       -5.07865748862536       -0.01242405912279
N           10.68646135454823       -5.89760557835022       -0.05577351745871
C           11.90104199794880       -5.56274865410194        0.68832085266409
C           10.72275777958860       -7.12640598152322       -0.84916770667009
C            8.33305061227204       -5.49713145480735       -0.57829723805472
C            7.21971202217607       -4.69830794095595       -0.53499196734100
N            6.17211539424950       -1.42587575502280        0.67029359942920
H            0.75634217219075        0.39229642114164       -0.08983163403713
H            1.00234783487262       -1.31522349720936        0.29888746034996
H            1.46204909748778       -0.70066961974463       -1.28707734730669
H            2.53338172978991        1.81682056312792        1.09512798413994
H            8.50198657369142       -2.05412695206812        1.10720009028698
H           10.49989856196704       -3.46694228817269        1.02793494042354
H           11.64890631348352       -5.28271258100697        1.70894204962790
H           12.41613419112112       -4.73563179380836        0.20435156104529
H           12.57580856617547       -6.41478136245904        0.73237498712183
H           10.34219637323877       -6.93581551468173       -1.85034703616674
H           10.11578467356963       -7.89346900974152       -0.37290192349193
H           11.74084027094579       -7.49762623336284       -0.94288565846631
H            8.27341750875374       -6.46561977049430       -1.04146253596230
H            6.29067106928498       -5.02660473242030       -0.96873936383118
