32
 energy: -6.651733101669 gnorm: 0.000915419912 xtb: 6.5.0 (97a52f5)
C            3.14225561568022        1.37117082900483        1.08983570528194
C            3.40208028015863        0.41854589507671       -0.01103292625833
C            2.53192759765192        0.12244677794593       -1.00920510755768
S            3.20451243490125       -1.03840943464877       -2.10141380438575
C            4.70672469244798       -1.13534204504386       -1.18730432105484
N            4.58303935483580       -0.29168352080044       -0.14553021259447
B            5.70046886360843       -0.09601066944991        0.88098785965688
F            5.24777497799671       -0.46546685844395        2.13540774088262
F            6.12239034522730        1.22175566756856        0.86124719028648
N            6.83958894700883       -1.00498753164014        0.45999812033817
C            6.76093439414793       -1.80019003254642       -0.64720823493982
C            8.03119165078719       -2.52001626840203       -0.71263210710448
C            8.60756842859424       -3.46264012611367       -1.54688176454063
C            9.89570933926616       -3.92327511453151       -1.25325181344607
C           10.61495431161237       -3.47421531335399       -0.16181042818329
C           10.06288240870343       -2.51382951789324        0.71544523707765
C           10.62921506583045       -1.93518017076928        1.87479382739368
C            9.92410650200341       -1.00122032190901        2.61404971500853
C            8.63731739428285       -0.58409310580547        2.26587061430747
C            8.05041166051131       -1.12926594588754        1.13682969889523
C            8.77843014282356       -2.07684374443906        0.39231499273952
N            5.74529355139732       -1.91279393360133       -1.50280472845118
H            2.94943884405720        2.37121804290837        0.70156831596612
H            4.00500464699347        1.42709334546659        1.75408215103309
H            2.28123346107792        1.05751680092380        1.68009686803640
H            1.55315900310381        0.54766724067098       -1.11456669354452
H            8.06333020937481       -3.82572894067683       -2.40033747801861
H           10.34178899494826       -4.65684611046627       -1.90439586933341
H           11.60342915770346       -3.85104678498203        0.03347581282437
H           11.61850448655478       -2.23283074823393        2.17436222254039
H           10.38328313401637       -0.57880472510977        3.49255627127696
H            8.09871010269251        0.14182636518280        2.84836314586748
