35
 energy: -6.593234416611 gnorm: 0.000918778523 xtb: 6.5.0 (97a52f5)
C            1.41142660300954       -0.07318482095567        0.00388991828844
C            2.89362861768043       -0.11528265374353        0.00438861115961
N            3.68983049455443        0.97364751799168        0.04945785722082
C            4.94043365749481        0.52900065050902        0.04067073650375
C            6.13992454797610        1.37997308367060        0.05799299432275
C            7.06141720840825        1.30266143638019       -0.97843124570431
C            8.20092735804155        2.09916783498610       -1.00567722481490
N            9.11285989523262        2.00705219590225       -2.06465529113536
C            8.40882118057760        2.99164141493164        0.04640040714325
C            7.50894543334473        3.08374085850148        1.08259199116797
C            6.36369524606726        2.28957042974574        1.11749427130972
O            5.46303575072973        2.36760238883543        2.17050425198682
N            4.96546779140144       -0.86415791394834       -0.02329149030564
C            3.66201571718600       -1.27028748842776       -0.03624915659704
C            3.23913150178540       -2.70036021968198       -0.07416436269240
C            4.40822468581530       -3.64059508606631        0.28036663651377
C            5.72837528415729       -3.20330422615635       -0.38219363053389
C            6.12593990256752       -1.77631331320519        0.01583011378661
H            1.05685171085533        0.95708332893925        0.01298191373129
H            1.00797301356647       -0.57613851927301        0.88279165454616
H            1.00924342132987       -0.56087373218999       -0.88426689468336
H            6.88079846046411        0.62228428532974       -1.78921413200191
H            8.81095311502632        1.61463700724432       -2.93949298356015
H            9.75068836918551        2.76626253356712       -2.22902435546605
H            9.29000259411230        3.60835771923198        0.03708440437668
H            7.68685613390471        3.77428203090094        1.88744588374658
H            5.75825291848089        3.04228131318068        2.81466183152132
H            2.85640057448155       -2.93294843004506       -1.07429060779424
H            2.39788246760047       -2.84730831238474        0.61397778855752
H            4.16576090579670       -4.67648370343062        0.00555002566833
H            4.54317289747283       -3.65213607488885        1.36885604365046
H            5.61502635064113       -3.25300602792832       -1.47187242717531
H            6.53426733189830       -3.90930787641394       -0.13904833023173
H            6.90538462536771       -1.38220601614357       -0.64350352985098
H            6.53618423378581       -1.75644161496438        1.03001832734574
