73
 energy: -16.138017548581 gnorm: 0.000628866332 xtb: 6.5.0 (97a52f5)
C           -1.46900350647784        0.24810257061682       -2.32528195499246
C           -0.25965406256105        0.15872558599752       -1.45401520445476
N            0.12075486144305       -1.06271808748060       -1.10303842477420
C            1.19567644904550       -1.13962125303333       -0.31649467679828
C            1.64392284709636       -2.45932578211567        0.16293950315137
C            0.73544505741064       -3.51409200781155        0.23878296382450
C            1.10788587376095       -4.73345575588179        0.75065314934316
C            2.40792064200191       -4.94618109341459        1.19855154225800
N            2.78049398307218       -6.19536525849381        1.80279825758250
C            3.93105744528984       -6.96000151362332        1.51352860072021
C            4.93708687779066       -6.77660899960775        0.56511990834996
C            5.95875115828401       -7.69218480493827        0.49923712285852
C            5.99785438490098       -8.79193721552449        1.36122583265738
C            5.01298000530276       -8.99053300670281        2.29870415800026
C            3.96732050480188       -8.06926998714450        2.37620618420794
C            2.80852450677375       -7.98512573091830        3.23363795482481
C            2.35674554953899       -8.78467365386134        4.28492796001669
C            1.21332511386250       -8.41374178363191        4.95099293873130
C            0.51463380324627       -7.25780548148719        4.59125171126664
C            0.94657367165679       -6.46243459350296        3.55842147123012
C            2.09944070796056       -6.82937034654948        2.86430947654768
C            3.32847791839152       -3.90828429903003        1.09354952400370
C            2.95536154484984       -2.68732565635086        0.58595563298380
C            1.84358949582538        0.00500616885820        0.09481947125423
C            1.35982297446970        1.23138861322019       -0.30668059996209
C            1.99407152810517        2.47010962573115        0.18059078047899
C            3.34758078059899        2.51838795136901        0.51982262347298
C            3.90376644288399        3.66633588182825        1.02939992441974
C            3.13053114803328        4.80655151647640        1.22532489567960
N            3.69992659151764        5.98001506357596        1.82684427546305
C            3.52701035420723        7.31390140390095        1.39763127125883
C            2.83575091853957        7.84458678440638        0.30836522470677
C            2.83425067340583        9.20564147114350        0.12419042082995
C            3.51346285147212       10.05301011157047        1.00409933767611
C            4.20680153967679        9.54763225174883        2.07730981422671
C            4.21782807076303        8.16623574716781        2.27648161433278
C            4.83722101852064        7.33673468093043        3.28248648250628
C            5.62048793082733        7.63998778197598        4.39744918885808
C            6.05567316519609        6.61073967074771        5.19711446113555
C            5.71936358633323        5.28530366120167        4.90841154960005
C            4.94811962511853        4.97262318731117        3.81601871169192
C            4.50468812647769        6.00363728721347        2.98715162947586
C            1.78713348489049        4.77076829071422        0.86375893938554
C            1.23165869835994        3.62547091638963        0.34606535469309
N            0.28415584330542        1.31249043035986       -1.09105271972734
H           -1.59481496372655       -0.66559101308544       -2.90516122853988
H           -1.38215905044142        1.08339350797842       -3.01932881145054
H           -2.36478593846638        0.39635901697305       -1.72299011970385
H           -0.27423471710242       -3.35041931969218       -0.09452450506294
H            0.39811838667634       -5.53966322063391        0.81312926053023
H            4.89712979705358       -5.93326169658738       -0.10063626871565
H            6.74274849797830       -7.56233290036483       -0.22862622529509
H            6.81184823415804       -9.49423255951884        1.28783845967816
H            5.03551662572771       -9.83393556333515        2.96595710160854
H            2.90600620364981       -9.66686322436041        4.56253095601495
H            0.85262747691739       -9.01842240963769        5.76675366836185
H           -0.37448645421215       -6.98542278654307        5.13586428816221
H            0.42124913352510       -5.56486948171252        3.28586601094136
H            4.33357636982964       -4.06949851994709        1.44194472338898
H            3.68291750498980       -1.89892763495026        0.50673077673812
H            2.67005322239118       -0.05282001154322        0.77747646371656
H            3.96234020805438        1.64862466470062        0.36763025268113
H            4.94999721223526        3.69945510668227        1.27815089030819
H            2.32518849654123        7.18839667565882       -0.37318346231304
H            2.30221054617653        9.62825693205418       -0.71223917961113
H            3.49436707105586       11.11728632739307        0.83625408610731
H            4.73466612768376       10.19207212306863        2.75783811185398
H            5.86879272266601        8.66336837204680        4.61658003522954
H            6.66153019253555        6.82750426958915        6.06149421903637
H            6.06902356870469        4.49745190646113        5.55523327039441
H            4.67322042369587        3.95594084308029        3.60066597063208
H            1.18123232414482        5.64501747073142        1.02431480286122
H            0.18921059171177        3.59834278218998        0.08136016949540
