46
 energy: -7.154999408583 gnorm: 0.000608675951 xtb: 6.5.0 (97a52f5)
C            1.10824137465940       -2.68865076658370       -0.04382682352466
C            2.06615758342812       -1.57524677985028       -0.24531652941083
N            3.00599907417672       -1.42251005203159        0.64624606353599
C            3.90867320038581       -0.40696137765248        0.48231426233012
C            3.83899683057016        0.46141356568214       -0.63823937234839
C            2.83999460269989        0.28013652399604       -1.53322020876544
N            1.92483331808000       -0.73371987046913       -1.34493452035765
C            0.84784997067666       -0.91560639410548       -2.32154059155971
C            4.83997697791216        1.54244069275106       -0.82258014163742
N            5.82222221118834        1.59024983254291        0.25159243593081
C            6.80627398280848        2.57803551569471        0.17053655333270
O            6.83277206724372        3.34919918935386       -0.77308420105011
N            7.75044995495214        2.64176196395855        1.19853753534205
C            8.75656747945545        3.71326873175086        1.21947439420502
O            9.75144538473986        3.47515329797715        2.21906731867433
C           10.86542909741453        2.80016857127226        1.62417741617719
C           10.85811984415682        1.31443896064108        1.98725073825453
O           10.60860094723669        1.10285812829712        3.35300301511512
C           10.82687208378683        3.06931174763749        0.08815346347260
O           11.95225443848471        3.82580523188181       -0.30238832486224
C            9.52012536589118        3.87806662312843       -0.11812845690601
O            9.82388380822682        5.22845388898080       -0.36881826068186
C            7.67922869097884        1.76833205833661        2.27098215158983
C            6.72852895514484        0.81028186694029        2.34085827117397
C            5.76037741229282        0.68268510567769        1.32552734329678
N            4.85312823518214       -0.28295398125719        1.43626420068643
H            1.45803513147679       -3.34217479046563        0.75592108395515
H            1.00848892500122       -3.29172804926452       -0.94621912282758
H            0.12562050187928       -2.31092919538611        0.23927518485919
H            2.75199320863302        0.91803242688135       -2.39436426854196
H            0.78232688464397       -0.05118737877632       -2.97882373968509
H           -0.10747434338270       -1.02672038204373       -1.81358484284868
H            1.04325169413515       -1.79766586708803       -2.92777285225378
H            4.34641927326648        2.51804992498578       -0.86934137640901
H            5.37985608955569        1.40729985004954       -1.76487895114708
H            8.25245147423287        4.65400542956485        1.48100077451443
H           11.75945352836914        3.28985748222176        2.03905037150489
H           11.79796521588003        0.81981721925488        1.70944522780247
H           10.05325379943771        0.80185327328202        1.44865348518010
H           11.21860068884634        1.61748458128238        3.90916556764736
H           10.82185040427102        2.12000299379311       -0.46926835612369
H           11.89450490717477        4.06989963507298       -1.24144856276454
H            8.91612376380742        3.51926722046103       -0.96646499342881
H           10.52608262756929        5.51915399107071        0.24082619090414
H            8.42989735337796        1.86880829042794        3.03806280554670
H            6.69513598010006        0.12606107012919        3.17113864215050
