26
 energy: -5.742045884198 gnorm: 0.000686610514 xtb: 6.5.0 (97a52f5)
C            1.29419462493789        0.01013003237388       -0.07082614271443
C            2.77544947967688        0.04114356549836       -0.07292000392185
N            3.52896855071524       -1.04111679513517       -0.01358785513569
C            4.79926000085933       -0.60115246883428       -0.03506254175090
C            4.80100113075980        0.80949153708622       -0.10916923026822
C            6.01666379135937        1.52385320936827       -0.13620609759562
C            7.20407365540654        0.85017268554190       -0.08767215237601
C            7.23114514005741       -0.57634426344696       -0.00799958559011
C            8.46256061716650       -1.24705997945036        0.04564707181602
C            8.48391706148039       -2.62216062045731        0.12185784661887
C            7.30499118807139       -3.35531552480533        0.14731223623709
C            6.09345797475972       -2.71890154763111        0.09773317891783
C            6.03531739476436       -1.32489531588161        0.01968659117743
C            9.71647267303683       -0.47355366489060        0.02191474136379
O           10.76705707070653       -1.07958684412993        0.07312483473893
O            9.67163820980659        0.90362951299722       -0.05665657945336
C            8.47537243434859        1.58989480248354       -0.11253527679642
O            8.43341404036254        2.80132705354915       -0.18135753222217
O            3.49403745655917        1.19973738976003       -0.13424264897690
H            0.93058456496107       -1.01714000981049       -0.07273414810234
H            0.90315439893366        0.51759853450821       -0.95235395156963
H            0.90534320885460        0.51315659472900        0.81426203861516
H            6.00631539797750        2.59776080804935       -0.19241267104476
H            9.43920822533909       -3.11998413318748        0.16190904399834
H            7.34562712194049       -4.43143311733510        0.20712493626769
H            5.17376458715855       -3.27847144094945        0.11788389776703
