57
 energy: -10.863538787207 gnorm: 0.000582509271 xtb: 6.5.0 (97a52f5)
C            1.99783263248210       -1.54726030045793       -0.43960294469488
C            3.22671066973462       -0.74416870302238       -0.31386150130515
N            4.41733852362523       -1.23685201648480       -0.39515265228845
C            5.38842847989662       -0.26120684433139       -0.23702562666164
C            4.91414899009409        1.03358454634408       -0.02319415825658
C            5.78547931123120        2.11111691288204        0.16803308973362
C            7.13728343712228        1.90511555622626        0.15213402533727
C            7.64800541233911        0.60789176717017       -0.06242299616380
C            6.78590535231718       -0.46333488246671       -0.25490788832168
S            7.69530489088255       -1.93109127390803       -0.48854149840065
C            9.21794991925539       -1.12414173406533       -0.26281223972383
C           10.45792570087694       -1.83224035374588       -0.27390670647885
C           11.56198057855706       -1.45582708312107        0.40442176790955
C           12.82139372636977       -2.16664086627947        0.40683657187742
C           13.78918409264812       -1.86011201071220        1.36912092207407
C           14.98856322040286       -2.52470274517454        1.40130617249225
C           15.27743066633853       -3.51352073981792        0.46518017090649
N           16.52996263531537       -4.21148371771145        0.49858416907201
C           17.08934558555146       -4.86684387976058        1.61578356048891
C           16.61087677698258       -5.02404120756291        2.91495806533450
C           17.35876738757588       -5.74669702081816        3.81079507348014
C           18.57521214265509       -6.31968957005222        3.43543369500910
C           19.05737413577814       -6.18133954527148        2.15669138230981
C           18.30794927436942       -5.45151439750003        1.23511118844952
C           18.51393314183994       -5.14451953220832       -0.16075186336474
C           19.54173117940595       -5.45632032077398       -1.04956183070318
C           19.45527646393839       -5.00075703213309       -2.34256539952758
C           18.36479169589811       -4.23792621268087       -2.76431753811232
C           17.34426052885811       -3.92504623852401       -1.90143094856775
C           17.41196057143701       -4.38674800087701       -0.58852050999891
C           14.32511631936275       -3.81466684254597       -0.50441193534846
C           13.12078158378817       -3.15869039795957       -0.53282840691784
N            9.00803638567836        0.19942732120349       -0.09493359862300
C           10.06903311899807        1.21149440270139       -0.05770925089687
S            3.18189212362699        0.99528972713662       -0.04114107691801
H            2.23326444395499       -2.61129351425492       -0.44226691909193
H            1.47613533146671       -1.31217849742823       -1.36740821698831
H            1.32082828495620       -1.35138922952144        0.39216117489666
H            5.37734813813021        3.09315911506435        0.33167871817356
H            7.81416144681838        2.72360456233061        0.31655397555856
H           10.46678086506334       -2.77348791531668       -0.79483256794160
H           11.49380848298733       -0.59735207228956        1.04702126982451
H           13.57921517941035       -1.09579907090048        2.09709110479387
H           15.72954664604006       -2.27790142462694        2.14106405507302
H           15.66686374080993       -4.59207375058003        3.19375761294243
H           17.00063737317943       -5.87665996570920        4.81865815878636
H           19.14154743745921       -6.88196800990152        4.15921567002200
H           19.98994275618685       -6.62634734280659        1.85875731161124
H           20.38079396743890       -6.04084308711410       -0.71669883093498
H           20.24144274403042       -5.23304377352291       -3.04167708970937
H           18.32573737973097       -3.88760333462868       -3.78251074907367
H           16.50799073049487       -3.32758389205327       -2.21650235614950
H           14.54345126268087       -4.58483381735597       -1.22301688631144
H           12.40627861429666       -3.39758045335517       -1.29978572712098
H           10.96484830947695        0.84164648081060       -0.55036956509907
H           10.30063716140421        1.47362786605470        0.97198318006279
H            9.75163304874894        2.10614436337623       -0.58756260652788
