53
 energy: -8.650464336223 gnorm: 0.000598665217 xtb: 6.5.0 (97a52f5)
C            1.94956107752508       -1.37860172241599       -0.35115750489312
C            3.16839749343134       -0.55397226973120       -0.28476746672512
N            4.36381016328743       -1.03779873690381       -0.33307409786933
C            5.32583032568134       -0.04500516057583       -0.24285296545022
C            4.83951042504717        1.25646060578162       -0.11749813312090
C            5.70092355577301        2.35286198510015       -0.01087634998545
C            7.05485926710258        2.15978598024525       -0.02886041406910
C            7.57825480006236        0.85621816930095       -0.15812175622456
C            6.72471601554745       -0.23378225031459       -0.25916667612216
S            7.64515220923457       -1.70646389366257       -0.39042084200921
C            9.16480040014639       -0.87273085978006       -0.25712822571045
C           10.39862525312548       -1.58287241878660       -0.23432318447433
C           11.55197089859877       -1.12645718229156        0.30279226793398
C           12.79890057928511       -1.84755879311959        0.34514439805373
C           13.88262059018830       -1.31548003909387        1.05372341158202
C           15.07816897599935       -1.97849414239174        1.12521500695177
C           15.26388784228321       -3.21306585455315        0.48960498844552
N           16.48473483738840       -3.89374456701509        0.56419237788819
C           17.65729353140882       -3.34470001909884        1.27052170468896
C           17.59118500193335       -3.59223103625468        2.76917311809333
O           18.63927569115367       -2.97451600882843        3.48799419301097
C           16.69395209935886       -5.21826244727593       -0.05027463236824
C           17.02010682166283       -5.11618173766197       -1.53168060329003
O           17.12047526355845       -6.37063865345052       -2.17402328868690
C           14.18094595301047       -3.73968899207861       -0.22650449379851
C           12.98446079847566       -3.07766208485164       -0.29764318327104
N            8.94290203084472        0.45994334155806       -0.19223226764183
C            9.99056806430301        1.48306572003407       -0.27413124334508
S            3.10790589373205        1.19881161588096       -0.11990407682408
H            2.18297099355046       -2.37753043312467       -0.71941367883489
H            1.21514148484338       -0.93179813223899       -1.02165517661212
H            1.49671648343227       -1.47714224581295        0.63561232132240
H            5.28352204227414        3.33967146366665        0.08900475770286
H            7.72320649359980        2.99553941011131        0.07095182092442
H           10.36828599218790       -2.59017207770194       -0.60950595435190
H           11.53742477571662       -0.17308563345608        0.79691876138767
H           13.76340971130910       -0.36978240605422        1.55387854837344
H           15.88530286452275       -1.54486382845482        1.68660353992134
H           17.73458647223210       -2.27617735433949        1.05947801168071
H           18.56318792767788       -3.78901428486726        0.85203269487888
H           17.58946631645284       -4.66684873759614        2.99213144687106
H           16.65451501090857       -3.19668217916900        3.17856574591262
H           19.50869024078379       -3.29043791759734        3.17830325768578
H           15.80448511592963       -5.83159464456588        0.10745251540656
H           17.49814131367046       -5.73224591697097        0.48098831579758
H           17.95049878446376       -4.55676333403651       -1.69294541665863
H           16.23599329563939       -4.55759743169031       -2.05575224443950
H           17.80684572332563       -6.92360822663705       -1.75559319146986
H           14.29067897904376       -4.67838825115378       -0.73794428067849
H           12.18043718764022       -3.50587239500883       -0.86816143728293
H           10.29102331559213        1.79361622674454        0.72377446722896
H            9.62617731428451        2.35010571033793       -0.81908674588773
H           10.85220630177807        1.09970407182841       -0.81502813964899
