59
 energy: -11.036200037168 gnorm: 0.000549294320 xtb: 6.5.0 (97a52f5)
C            1.75633314457602       -1.37439441922570       -0.19805177848156
C            2.99581392758358       -0.57946929510688       -0.14593276606573
N            4.18016339518725       -1.08969149933555       -0.20901552346648
C            5.16274772539381       -0.11483398377289       -0.13851895467867
C            4.70314396545590        1.19716350747337       -0.01465156024829
C            5.58653385700850        2.27786988507134        0.07247448255693
C            6.93598668688237        2.05928658231116        0.03203325669514
C            7.43241538335895        0.74543594704262       -0.10032796255324
C            6.55790179838993       -0.33027000567986       -0.17768202652292
S            7.45005589732455       -1.82094915657430       -0.31598872371164
C            8.98620411747241       -1.00950286073250       -0.23545281861583
C           10.21194374939595       -1.73423969758127       -0.25507169895613
C           11.39180629245431       -1.27533670582786        0.21666358024391
C           12.64627504987076       -1.98666636929398        0.18744953224741
C           13.77287292280669       -1.41705197457207        0.79232721164137
C           14.98491086434220       -2.05576903120069        0.77350112193658
C           15.13380222058494       -3.29242519381675        0.14521082512434
N           16.40013132848677       -3.94835634232604        0.11554949900573
C           17.34079515029851       -3.75617869811760        1.18380878315849
C           18.69696774575097       -3.59256064742243        0.91503276264653
C           19.59771485540517       -3.41092672943810        1.93890183189126
C           19.16223966605659       -3.39278005425167        3.24865014153291
C           17.82127269450715       -3.55758142916975        3.53168736058387
C           16.91774846035190       -3.73781899397621        2.51005868636404
C           16.76046333018862       -4.78962594209515       -0.99057753158064
C           17.47938229737050       -5.96350913926132       -0.78362857198357
C           17.83508142030072       -6.76465725559794       -1.84394609602641
C           17.48210025147525       -6.40803690872595       -3.12973977103881
C           16.77238951102849       -5.24531487141747       -3.35190047209985
C           16.41502134611912       -4.44224170959720       -2.29366107760725
C           14.01327000481471       -3.86440681302530       -0.45844121043488
C           12.79832161110973       -3.22951462723173       -0.43914672819933
N            8.78887229656189        0.32744218262024       -0.16945366416493
C            9.84727510434357        1.33498067355206       -0.29999035156137
S            2.97052706185768        1.17533208883199        0.00662844484477
H            1.98325053451741       -2.44027568367947       -0.19879078258336
H            1.18938744344892       -1.14688965639373       -1.10094445060102
H            1.12428737042270       -1.16210771728432        0.66447526466002
H            5.18969695277385        3.27287005379490        0.17382368810450
H            7.62168757582183        2.88257400083183        0.11605036932735
H           10.15849695014936       -2.74336450097719       -0.62257215314777
H           11.40397961192093       -0.31607568344090        0.69879274388090
H           13.67873664236594       -0.46007777773955        1.27558156367506
H           15.84533973543035       -1.59799668209392        1.22832529212825
H           19.02893560080311       -3.59986835860452       -0.10826979589502
H           20.64443777217553       -3.28155192089963        1.71775030734051
H           19.86879829619245       -3.25105400194093        4.04972996241189
H           17.48166005775948       -3.54691355611145        4.55430968606917
H           15.87301155682418       -3.87887077370569        2.72486205353429
H           17.74597434166175       -6.23941769303940        0.22134040177985
H           18.38985846951564       -7.67192476999210       -1.67044370792040
H           17.76150293754943       -7.03612398596681       -3.95948498789748
H           16.49962140652186       -4.96487123852989       -4.35587226156788
H           15.87541183947541       -3.52710393315014       -2.46253714102805
H           14.11416440953123       -4.82470921935128       -0.93231758230389
H           11.95540760054625       -3.69052750034990       -0.92091179331209
H           10.67590739482434        0.94080571983360       -0.88320352753620
H           10.20032328109119        1.63908088354176        0.68266924208047
H            9.47136708457448        2.20979348271072       -0.82434062367170
