58
 energy: -11.810197451727 gnorm: 0.000747390647 xtb: 6.5.0 (97a52f5)
C            0.98380928494233        0.14466753491323        0.71881619010913
C            2.41750894119569       -0.32214998430143        0.44149709645127
C            2.39665412900484       -1.68968679994781       -0.25028273123498
C            3.12596840780349        0.69734469249569       -0.45506284120586
N            3.14592741060166       -0.44273600785404        1.74106928436270
C            4.53971233913913       -0.67563458668027        1.77806206160715
C            5.23189045709945       -1.91327891712758        1.73578793331123
C            4.64148398463997       -3.25172642178496        1.80930497924662
C            3.51117309597168       -3.52698565969093        2.58135718265795
C            2.98380631833666       -4.79323805557722        2.62591670135579
C            3.55615557714066       -5.83913232493167        1.90612059108468
C            2.95135598394385       -7.17480615790142        1.99001666996300
C            3.24825189512141       -8.15413512886466        1.08425351482867
C            2.65417791403592       -9.44229473267974        1.17600360409884
O            2.90581745138181      -10.34047585491876        0.35756585910411
C            1.75189610709863       -9.64310970868216        2.25743115007829
C            1.48110469161459       -8.64082292141795        3.14323763974484
C            0.54822076096283       -8.84033881285023        4.26511059205549
C            0.25600289490100      -10.10239207159724        4.78025406575012
C           -0.61669756353122      -10.24411053902025        5.83668579674703
C           -1.21015652742786       -9.13265680877608        6.40107932981612
C           -0.92427977728620       -7.87534848047968        5.90837770875358
C           -0.05169221174808       -7.73144398150690        4.85258627391256
O            2.06033024043092       -7.39280412601039        3.02359369063366
C            4.70248376924063       -5.57214328764383        1.15523016149720
C            5.23383495381979       -4.30685943426347        1.11383005939319
N            6.55589285045115       -1.70317309904297        1.54535224431433
C            6.72508051487136       -0.38636735800124        1.49769935794698
C            7.92140728583047        0.34141413287464        1.30894465048642
C            7.86644069472909        1.69743642567754        1.28579273705453
C            6.63572791250821        2.37841387173673        1.45137012524162
C            5.48642600767945        1.68996304819602        1.62668679324117
N            5.50691279571726        0.29835372059309        1.64329920306305
H            0.42714094997310        0.27077745864170       -0.20891280037932
H            0.98671803621202        1.09750886688039        1.24564976649501
H            0.45214913766096       -0.57801415903781        1.33577037981683
H            1.86090130773567       -1.64160696325727       -1.19740872708767
H            1.90879147675932       -2.43393966316025        0.37721059056293
H            3.40995864729423       -2.03359307702882       -0.45145118218889
H            2.63110170340278        0.77977916267772       -1.42198414745999
H            4.16064945489165        0.40456447722332       -0.62673039877729
H            3.12551961803771        1.68227918361573        0.00800600281528
H            2.56622857075648       -1.00902469526763        2.35240758824192
H            3.07798070610765       -2.74650945123743        3.17896985953736
H            2.11601285700069       -5.00043177322364        3.22784023442321
H            3.91984406943871       -7.96758607327272        0.26972286737532
H            1.27224266071524      -10.59819935973286        2.34427818188591
H            0.73169274630854      -10.97182069890392        4.36224290762069
H           -0.83421526374045      -11.22513548013214        6.22638408051389
H           -1.89214357873251       -9.24663817727163        7.22775495749818
H           -1.38325326554020       -7.00628337930190        6.35046539310663
H            0.18043526056630       -6.75433396222123        4.46549342780189
H            5.18849422948390       -6.36883779116765        0.62126711862341
H            6.12056293257568       -4.10881379749641        0.53746807786001
H            8.84867379301464       -0.18885115871293        1.18778441761214
H            8.76935736862697        2.26795015607423        1.14360400904037
H            6.62165499851727        3.45554326782860        1.44324385129620
H            4.54637299273692        2.18816492254538        1.77760586827979
