33
 energy: -6.537674319243 gnorm: 0.000401630134 xtb: 6.5.0 (97a52f5)
C            1.02290976219795       -0.14753173054424       -0.01059789212195
C            2.50418202557696       -0.10939810263808       -0.00242517943340
N            3.15785729796660       -1.22812753375235        0.00123424810166
C            4.51902347482245       -1.13980409894892        0.00881022527302
C            5.18737024164389        0.08846667423227        0.01273692452619
C            6.60322859667637        0.11592474490268        0.02105537119960
C            7.33575289222809       -1.02567776925182        0.02524869849355
C            6.70121332427260       -2.28860315829671        0.02152632547075
C            7.42443046183776       -3.49729660250861        0.02580898762485
C            6.78325863415317       -4.69868590972963        0.02211183826174
C            5.37023849685337       -4.78759738433184        0.01377842067890
N            4.70674448595926       -6.03402208819989        0.00977787459646
C            3.24778390641410       -6.18970333227934       -0.00684359145347
C            5.39820168306734       -7.32769110871133        0.02068688266384
C            4.66158117282514       -3.59683241655093        0.00956477972432
C            5.29064680993792       -2.34905932515218        0.01321763310118
O            4.50659004086570        1.27701616802001        0.00887504852890
C            3.13945602107827        1.19872184904843        0.00117458389674
O            2.42761947750313        2.19976017762010       -0.00290626041577
H            0.66364357284236       -1.17624196970266       -0.01642275571201
H            0.63120630695607        0.35788600532173       -0.89324896931814
H            0.62162977579537        0.35125041973553        0.87152130644346
H            7.08659021313483        1.07674728284307        0.02395884817266
H            8.41101058561984       -0.98209216237904        0.03154911782218
H            8.50006792500465       -3.45729066656431        0.03201609687724
H            7.37627429716932       -5.59335588057681        0.02469652621150
H            2.72294301002655       -5.24068362913461       -0.01703645429766
H            2.92715566847346       -6.74087908964733        0.87499410764486
H            2.94803919523084       -6.74805411753821       -0.89148543361060
H            6.47771385137202       -7.22621607681203        0.03440323025110
H            5.12599811781080       -7.89771044608892       -0.86537936046026
H            5.10355874930753       -7.89485078274416        0.90140815824737
H            3.59088992537637       -3.59628793964014        0.00422066301123
