25
 energy: -5.301597120643 gnorm: 0.000522929139 xtb: 6.5.0 (97a52f5)
C            1.19099129960360       -0.05951289610565        0.04468768694646
C            2.67254707894394       -0.04674607339514        0.05129062705417
N            3.30657374395517       -1.17469512433846        0.05526989674204
C            4.67054455882095       -1.11122389087309        0.06247313035328
C            5.35702366073583        0.10572374354947        0.06660143728368
C            6.77535788254835        0.11252338899395        0.07662845369184
C            7.48830976992800       -1.03715336345704        0.08200525311558
C            6.83286344302424       -2.29476392221136        0.07758050387325
C            7.54768650459039       -3.50686610910140        0.08296368832330
C            6.88977266328660       -4.70306878655708        0.07837556368952
C            5.49523343947618       -4.74002858302756        0.06813064642781
C            4.77643998806125       -3.58011075802328        0.06296106346868
C            5.42146749751712       -2.33207280778372        0.06756958914565
O            4.69856110771360        1.30456769870378        0.06143572931858
C            3.33171716722621        1.24988193520784        0.05263068082351
O            2.63710978311415        2.26151297651845        0.04557657121012
H            0.81475612301376       -1.08218119309880        0.04210126199143
H            0.80731545678205        0.45087674782117       -0.83863515537964
H            0.79956074571683        0.44920301900820        0.92558794854229
H            7.27180946481464        1.06676043636093        0.07994254393471
H            8.56410431283904       -1.01056213290705        0.08978232365901
H            8.62356237962448       -3.47861786406055        0.09084207687813
H            7.44815142118641       -5.62471027710061        0.08259609544325
H            4.98659717420669       -5.69008548134003        0.06439117094191
H            3.70095333327056       -3.60221068278297        0.05517121252145
