51
 energy: -10.299126732283 gnorm: 0.000658151116 xtb: 6.5.0 (97a52f5)
C           -3.42798514907143        0.64175245373913        0.50179977234887
C           -2.03253769861139        0.19279348862318        0.23394009652557
N           -1.09692274040715        1.10505695691430        0.22617710671550
C            0.15441657908431        0.63841621554826        0.00067355373237
C            1.22939858431040        1.54226643995609       -0.01658839556280
C            2.53199635468886        1.13652522335195       -0.23367638626771
C            3.64736614994660        2.06517302763631       -0.24231521707034
C            3.56874285637047        3.37851690806465        0.03724313460274
C            4.68110178232985        4.30796655405711        0.03838809539031
C            4.46616655440231        5.63909480406951        0.41326054581398
C            5.49302007920270        6.54783897416254        0.43218531402693
C            6.79423605457465        6.17595450796380        0.07283166491751
N            7.84574898021515        7.10496492142850        0.08901721415589
C            7.66138111462480        8.46217102503118        0.60407327202813
C            9.18480578351053        6.75868223671018       -0.38853245628777
C            7.00860644789296        4.84451615904858       -0.30491875284545
C            5.98140279966728        3.93526139473709       -0.32123407273303
C            2.77075616302577       -0.23778807675464       -0.44986791779428
C            1.75133744491729       -1.13854155936204       -0.43737204149577
C            0.41596513585071       -0.73688016853413       -0.21164341912675
N           -0.56259912111308       -1.66143869542525       -0.20950379627411
C           -1.77465979379516       -1.18624928422085        0.00078892433582
C           -2.89783723648639       -2.16036763174687        0.01157971550411
C           -2.93361978059703       -3.17848429519130        0.96194888846851
C           -3.96445946216503       -4.09166853562128        0.97492444354736
C           -4.97435704275844       -4.00910145545039        0.03682284379459
C           -4.94839576279552       -3.01266413213433       -0.91887264171001
C           -3.91903826618449       -2.09787184290004       -0.93553140811109
H           -3.42714434555161        1.61582138727989        0.99026493140133
H           -3.94993182987820       -0.05856746992477        1.15419252249513
H           -3.99219660241850        0.73469907274034       -0.42595978764283
H            1.00618901709448        2.57925794282114        0.14347610783894
H            4.60720943893817        1.64608656643012       -0.48092734899102
H            2.61195832988829        3.79168457032788        0.29761680677784
H            3.47286958802921        5.94719360022177        0.69181510778302
H            5.29668283050502        7.56545615788649        0.71874429960925
H            6.99676386903243        9.02341967279887       -0.05016960224338
H            8.61046966420654        8.99103431548402        0.66415251796559
H            7.23230640308834        8.42782745751931        1.60389089679994
H            9.12665124610388        6.33041348239964       -1.38730643086466
H            9.64577468612064        6.03676328888921        0.28278873880405
H            9.82314396984287        7.63839289359078       -0.43848277447067
H            7.99949300638696        4.52952480444093       -0.57950447648053
H            6.18127510852562        2.92114074994075       -0.61699038810676
H            3.78034669516981       -0.56898860823900       -0.62288405591986
H            1.94598870680108       -2.18382355749691       -0.60091635470659
H           -2.14231393262036       -3.23795219346502        1.68915174778539
H           -3.98188500125939       -4.87267237210687        1.71739482138958
H           -5.78023256429055       -4.72470370630471        0.04760920365856
H           -5.73363067586121       -2.95163001948713       -1.65447799663349
H           -3.88571441848875       -1.33108364945010       -1.69012656687343
