26
 energy: -5.740765294800 gnorm: 0.000828026073 xtb: 6.5.0 (97a52f5)
C            1.26406626198599        0.09699085426180       -0.04796766111115
C            2.74558212261294        0.09445031156129       -0.03326009763053
N            3.47684680753671        1.18595983638521       -0.08998714108214
C            4.76191931016214        0.76657315184142       -0.05381929432430
C            5.96346008604392        1.50374676704475       -0.08465595852460
C            7.16334175127587        0.85082524416845       -0.03712234613840
C            7.21302357400519       -0.57409743128551        0.04531993233986
C            8.45491005030979       -1.22521703836917        0.09500632154561
C            8.49713248436330       -2.59978036945643        0.17509201229854
C            7.32940779604863       -3.35081593665625        0.20745848239392
C            6.10788526713723       -2.73306837108311        0.16041137239721
C            6.03004991665889       -1.34125254241433        0.07905474794616
C            4.78083607697895       -0.64319759820427        0.02748615459799
O            3.48660235002686       -1.05536815586649        0.03921445890264
C            9.69561065138154       -0.43144275393144        0.06065674348281
O           10.75574076365794       -1.01990258469111        0.10999340854219
O            9.62847040998800        0.94464434827083       -0.02532925888204
C            8.42067972581556        1.61151987085932       -0.06787767032750
O            8.35659080371540        2.82248882211933       -0.12998917178902
H            0.88067343311023        1.11694063758773       -0.06131117813874
H            0.87550794023163       -0.40777729702863        0.83624843181870
H            0.89223300623584       -0.42425742881968       -0.92977766961710
H            5.93797670407729        2.57695868841751       -0.14513166710382
H            9.46010685716742       -3.08269932347445        0.21255533834100
H            7.38666059028675       -4.42595993610513        0.27052828032137
H            5.19503525918589       -3.30445176513163        0.18528342974126
