33
 energy: -7.206459788216 gnorm: 0.000995129841 xtb: 6.5.0 (97a52f5)
C            3.27253374160817       -1.51399674112493       -0.00917446314211
C            1.96057098242395       -0.82145990638354        0.02089126107609
N            0.87689779760014       -1.53038659120746       -0.04921597316023
C           -0.32163676830711       -0.84844590377444       -0.02120589302450
C           -1.49678232233183       -1.60660748891445       -0.06874467015789
C           -2.73155186107828       -1.01109884407562       -0.05035913962385
C           -2.83446018567121        0.36310347240290       -0.00382933470438
C           -1.70312069375735        1.16737751446300        0.03113215693832
C           -1.89421560526186        2.63229091096383        0.01361921357260
N           -1.59001856622245        3.41893367947757       -1.01139420341583
C           -1.96603903334215        4.67386419698346       -0.64848242173776
C           -1.85170938279778        5.89548915430039       -1.33221555669974
C           -2.32342222239443        7.03220635865215       -0.73341235200426
C           -2.91455045509042        6.99547279337219        0.53955619876548
C           -3.03914051477346        5.82004306534481        1.22997779640925
C           -2.56092465973996        4.64629228818231        0.63574823499667
N           -2.52747422596511        3.33367639088364        1.03620351960689
C           -0.42588146972288        0.55503651350062        0.05106049794706
C            0.81222970282908        1.30717334180653        0.18605946455063
O            0.86177345217049        2.51932353132751        0.34966548800629
N            1.95994067037494        0.54426101583266        0.13968891721652
H            3.13488271278484       -2.58895655734316       -0.12072243780809
H            3.82438049141139       -1.33809577829595        0.91374741740974
H            3.87739565116794       -1.16208867750985       -0.84440729284654
H           -1.41046213844671       -2.67803560148199       -0.11621119369695
H           -3.62247831884350       -1.61644086367023       -0.08286276199811
H           -3.80349585306021        0.83162752516952       -0.01285519659388
H           -1.39781907031562        5.91774956090170       -2.30655561105045
H           -2.24015127375259        7.97529221304862       -1.24797318127576
H           -3.27662048809692        7.91018593094348        0.97915368749885
H           -3.49091086541532        5.78219784059277        2.20488421705996
H           -2.83092520220066        2.96390327823675        1.93542401593285
H            2.83713597421638        1.03810237739533        0.22142959595300
