52
 energy: -9.229384638466 gnorm: 0.000746749568 xtb: 6.5.0 (97a52f5)
C            0.89142366554592        0.00643782918671       -0.61160569215840
C            2.34871020554177       -0.04999836300317       -0.12552315910643
C            2.79320059780299        1.36344963008051        0.26864666020644
C            2.43491542864398       -1.01034564441066        1.06669452351583
N            3.19971848828365       -0.55499208349169       -1.24438045756007
C            4.56748227530212       -0.76835593411731       -1.32573121027317
C            5.46810082904168       -0.55647491749769       -0.28239230747542
C            6.81793592159591       -0.77773251613225       -0.43570294141256
F            7.65550258083874       -0.47418465928900        0.58269306733955
C            7.31122453269568       -1.25497456902778       -1.66099741569503
C            8.74453938912062       -1.51206828263659       -1.90213895821672
O            9.16370312871470       -1.53020131488943       -3.04665087782632
C            9.65953026952358       -1.78070718873000       -0.76758065253886
C            9.32763116360625       -2.70033851221317        0.22400444472644
C           10.18465565129678       -2.99859526198994        1.25651931427983
F            9.80638733701899       -3.92171430782403        2.16802834154363
C           11.44050836807738       -2.36201522604897        1.32883561790224
N           12.37323108074041       -2.59106576863603        2.33643926391684
C           12.31869540749717       -3.42162286485201        3.57465342574575
C           11.13734758951955       -2.97868344496940        4.44524018259888
C           12.21346128114334       -4.90373522672935        3.19749746817618
C           13.61983967435831       -3.20665027876332        4.36577553070101
C           11.76784384525490       -1.44808102513493        0.32416347982632
C           10.90874924205139       -1.15126883784553       -0.70719759982287
F           11.25803975902593       -0.22547449176126       -1.62773399948716
C            6.41630605342742       -1.45491829162705       -2.70524565529455
C            5.07168285433545       -1.22321097359835       -2.55687610579174
F            4.21784136027607       -1.42805624273358       -3.58737620260517
H            0.23062738130637        0.36837757737700        0.17461416166705
H            0.54555885580231       -0.98087138152235       -0.91333095359931
H            0.79373776366696        0.67381386331860       -1.46632976482542
H            2.14671879849006        1.77314744553776        1.04392861458095
H            2.75202154351023        2.02826106408824       -0.59295929225515
H            3.81276444631523        1.37536461114884        0.64499478914494
H            1.78017602234332       -0.68710052983817        1.87546761093132
H            3.44550887924210       -1.07357285501452        1.46168592382653
H            2.13368520458754       -2.01365619104699        0.76813939747540
H            2.65693857918109       -0.73262109877401       -2.08375938516629
H            5.12858195721031       -0.20118099381557        0.66937991183623
H            8.37524410974516       -3.19699174487630        0.18795092451572
H           13.25122549062513       -2.08206718430807        2.28672835314289
H           10.19191458033833       -3.12128021329718        3.92836631626256
H           11.22257977261150       -1.92181500520602        4.69315952266310
H           11.10166432442448       -3.54558187334735        5.37453559468783
H           11.30800034209028       -5.10171423312401        2.62975982666289
H           12.20040113739435       -5.53416193655002        4.08560355781547
H           13.06102787959783       -5.20024206011757        2.58150073863146
H           13.73677736248667       -2.16011553011145        4.64318716755369
H           14.48645570172765       -3.49785040720244        3.77405912929150
H           13.62326582841939       -3.79898405859854        5.27978110168110
H           12.71789038396336       -0.94852505488779        0.35386914821674
H            6.78634567463329       -1.79496344115203       -3.65513047996106
