73
 energy: -16.349836892529 gnorm: 0.000848071225 xtb: 6.5.0 (97a52f5)
C            1.58955260497353        1.15717722270717        4.19809636881868
C            2.73719259116696        1.39102365300743        3.29269015831881
N            2.74539815937881        1.09048432109101        2.01008841503601
N            3.96860950437763        1.40764643033374        1.55252783487889
C            4.38868302966296        1.18607795776043        0.18544627326325
C            4.51893876147655        2.24986288815587       -0.69601049851371
C            4.99916281273003        2.04265725655273       -1.97087170044723
C            5.33830108652676        0.76938936195475       -2.38283038092503
C            5.18897700300221       -0.29768491038623       -1.52000108620757
C            4.72024513170528       -0.09095609798969       -0.24118890867800
C            4.78138754748080        1.91003705876022        2.56794717280376
C            4.00114226940891        1.90236453481054        3.69283669649830
C            4.51958870911139        2.35318770163921        4.98539572117459
O            3.78942885598960        2.34054872325443        5.96585556798678
O            5.84035659224433        2.77938911942875        5.03081999819415
C            6.63170722422793        2.77572795099892        3.87099585047191
C            7.95970877928506        3.20639802071398        3.94318102352907
C            8.76515839779530        3.22229220334379        2.83161175028297
C            8.27490882173953        2.80562802050770        1.59394807913368
N            9.07073483138158        2.83677164638852        0.39698918787642
C            9.63750761709811        3.99001473201991       -0.18638986054200
C            9.85919954476921        5.26409921164558        0.33625293849432
C           10.39446182311890        6.22959373568104       -0.48005019895746
C           10.70543349773937        5.95432762410967       -1.81500934357156
C           10.47961458977510        4.71020779797730       -2.35156222980548
C            9.94118030217954        3.71656083732149       -1.53255314834566
C            9.53536656978583        2.35790829795759       -1.79742955457182
C            9.49329769265911        1.60175654678264       -2.96750301970527
C            8.96003271863116        0.32656997824005       -2.92454650334890
N            8.77416301361753       -0.42421914318809       -4.13759192135586
C            8.00661658061636       -0.00272739742346       -5.24069390759889
C            7.35950630308573        1.20673545037974       -5.49309230037445
C            6.64799320217203        1.34320712274076       -6.65872132681393
C            6.56845094724109        0.29568327082991       -7.58145411457394
C            7.19817823776004       -0.90262813947762       -7.34777721188532
C            7.92480804448068       -1.05765778491442       -6.16565941723529
C            8.66502764570738       -2.16701767955244       -5.61479515204913
C            8.91334243489586       -3.45917691815021       -6.08196172695174
C            9.66216453676463       -4.30845927881664       -5.30427729525751
C           10.16857892728249       -3.89537214511261       -4.06807742491515
C            9.93089907921899       -2.62943172280585       -3.59316422565291
C            9.17060601423254       -1.75523572121437       -4.36924152999333
C            8.50397754903762       -0.20379659289071       -1.70461971449585
C            8.52565181533941        0.53404814405466       -0.55119139974740
C            9.02693529695472        1.83542908752787       -0.59651322848293
C            6.96803216102775        2.37494045156012        1.50707885990388
C            6.14065232117563        2.35224184015685        2.61975340424420
H            1.58932348421793        0.12914798113948        4.55924328259824
H            0.64760488398055        1.33596285305675        3.68052196197393
H            1.63700014106405        1.81898230018432        5.06274269699299
H            4.26028332156812        3.23929813375627       -0.36109793114763
H            5.11717019481717        2.87569296061069       -2.64425095811489
H            5.73864271739761        0.61023301819622       -3.37017501340010
H            5.45080014273634       -1.29185911529095       -1.84327476259804
H            4.61852010951609       -0.91218548661290        0.44653654845256
H            8.33843180818040        3.52779797197404        4.89704002291306
H            9.78776352764047        3.54866490548721        2.90213720811257
H            9.60539306745240        5.47367950573149        1.35950646638044
H           10.57425794727885        7.21697180831705       -0.08779235065619
H           11.12133395069377        6.73267997529977       -2.43318441824644
H           10.70242020812373        4.49467256978955       -3.38154654776395
H            9.83979493905877        2.01339024853972       -3.89655557607637
H            7.42551081981166        2.00812130702012       -4.77935182253266
H            6.14224923741923        2.27171737664706       -6.86671377719914
H            6.00289550523198        0.43092628903731       -8.48850845523132
H            7.13699996945138       -1.71472010845949       -8.05031828761505
H            8.52004125732227       -3.77044423308995       -7.03338761308982
H            9.86358089970317       -5.30848378843587       -5.65116269867273
H           10.75522810606707       -4.58197403845348       -3.48024672879253
H           10.31999643027242       -2.30201526315639       -2.64579248906448
H            8.09871588444435       -1.20023291363658       -1.70113689706696
H            8.15379638013536        0.13510254086259        0.37542005500024
H            6.58887388622677        2.06330853268435        0.55377111513683
