68
 energy: -15.028453471952 gnorm: 0.000905644672 xtb: 6.5.0 (97a52f5)
C           -1.91991978435915       -0.94522230002062        2.08931939028146
C           -0.69997090132116       -0.11038812057423        2.04808578291507
N            0.07185525430946        0.14140407082988        3.09531941668294
N            1.05210432071523        0.90883644829394        2.70458165682968
C            0.90594181677495        1.14299563339771        1.39983782481067
C            1.82260055754968        1.96962867899507        0.62138167544051
C            2.72002659203433        2.79467554066412        1.28189971772740
C            3.57871672007717        3.64483249344377        0.60417083084034
C            4.44089434246036        4.52763598743200        1.38270743524365
N            5.08915280390983        5.59813232483036        0.92344493553666
N            5.74354523427491        6.13741224988056        1.91340162514888
C            5.50853407385522        5.42072221088119        3.00277116387502
C            6.08313477071454        5.71262664987584        4.33389945021289
O            4.68149548797967        4.38359011519438        2.71721032891953
C            3.55917419148813        3.65011185866646       -0.80469081059289
N            4.48049231638222        4.43160641228008       -1.58110218222248
C            5.88479802046054        4.30382953161170       -1.58263694828147
C            6.72654826763754        3.49780450354384       -0.81796904934295
C            8.07994783832680        3.56242990187801       -1.03785347840046
C            8.61129626057428        4.41312274336638       -2.01145853258899
C            7.79479025806258        5.20802738864400       -2.77892997435168
C            6.41640681925893        5.15499547328226       -2.56565028702981
C            5.30569881564038        5.82095862297477       -3.20236067827502
C            5.23405302337249        6.75082853172310       -4.24083990628734
C            3.99774601866893        7.19622260382039       -4.64179364826470
C            2.83116190432440        6.73278598177076       -4.02671796486913
C            2.88547393701557        5.81826644180833       -3.00434237044906
C            4.13186450989417        5.35408082158972       -2.58760060673985
C            2.66136020666980        2.82834482032659       -1.46458801178719
C            1.79785843952903        1.98451688570776       -0.78678720784587
N            0.93824705751691        1.12046154239514       -1.54723274660833
C            0.98293803265926       -0.28833801142309       -1.57609614565520
C            1.78765752753240       -1.18877351901703       -0.88025517651247
C            1.61661060172853       -2.53267012366715       -1.10144826643892
C            0.65960639141634       -2.99716501609018       -2.00832844491930
C           -0.13717825519383       -2.12258404504498       -2.70679199246497
C            0.02414413913798       -0.75299307394058       -2.49147395577692
C           -0.62763180754596        0.40512454874922       -3.05435463076563
C           -1.64327209771661        0.54815271146818       -4.00103269125928
C           -2.05576488962206        1.81448733776514       -4.33854223197290
C           -1.47524434009024        2.94183952398375       -3.75012908160737
C           -0.47509370912827        2.81718671792836       -2.81802957437216
C           -0.04417522708196        1.53945233308737       -2.46597882364182
O           -0.21206490864364        0.50978148193905        0.94559906225421
H           -1.71302862027872       -1.90890879845640        2.55265276934768
H           -2.29248267170269       -1.12452446939194        1.08187645819900
H           -2.70491454784197       -0.45121415249008        2.66026023525282
H            2.73795957209732        2.79204616760159        2.35705394124225
H            6.13182544764209        6.78722442920175        4.50611047883831
H            7.09061153768145        5.30622072961055        4.41496586454583
H            5.47260478330229        5.26797368283386        5.11886370951675
H            6.30774014623580        2.84984103312882       -0.06893365983002
H            8.74349393687447        2.94798647053300       -0.45198027571090
H            9.67765013056387        4.44255745784176       -2.16340386245938
H            8.19619773369519        5.85920316835151       -3.53492389721100
H            6.13592476577466        7.10195114522932       -4.70996826094609
H            3.92497173890454        7.91285895931687       -5.44309563660836
H            1.87477196202971        7.09936114473054       -4.36130225298860
H            1.99368379229842        5.45847989270226       -2.52346608628032
H            2.65414520449115        2.82412779345608       -2.53803173544047
H            2.51608764182422       -0.82121447321673       -0.17986970185753
H            2.22804213853595       -3.24108760353247       -0.56728212167554
H            0.54633209590572       -4.05766954458933       -2.16163104832924
H           -0.87413563273606       -2.47243352743031       -3.40768789077988
H           -2.08620853261181       -0.32363069067677       -4.44883657977848
H           -2.84031136227170        1.94178244622258       -5.06613655477633
H           -1.81948981532439        3.92309416968976       -4.03238097854973
H           -0.02655207634786        3.67777765508749       -2.35525779106121
