68
 energy: -10.772877508628 gnorm: 0.002882805631 xtb: 6.5.0 (97a52f5)
C           -1.12355715429402        1.89441281492857       -0.24151968864870
C           -0.03611561835810        1.17432448326221        0.45447296963206
N           -0.10922363979966       -0.08587027727718        0.86148029620995
N            1.01641334634453       -0.39547795508553        1.44214648424462
C            1.80944786146111        0.67623704265180        1.40618431330679
C            3.11418438048351        0.73179117717239        1.94218911805099
C            3.90645284895349        1.81715980622217        1.89277385197108
C            5.15262707038810        1.85980473340330        2.41564801953765
N            5.98182847680046        2.91851648957632        2.41675867173612
C            5.77286005279293        3.96639670387533        1.84193852626436
C            6.86565894540672        4.69515132165785        2.21022325107754
C            6.67527401360792        5.91578641027354        1.84618971923811
C            5.52130178870667        6.37255813909917        1.19434499272788
C            1.46531038662329        9.06611808062925       -1.98846389339986
C           -1.79968559292735        8.77817431020908        0.33050674534662
C           -0.98374816003480        7.80827908936456        0.03834893239276
C           -1.39404506221359        6.55752897302315       -0.00299248892102
C           -0.63657025188365        5.47726936184627       -0.16053765685179
C            0.66088309555405        5.30433984986529       -0.02711867042533
C            1.60687543397951        6.07343540250152        0.51454559218295
C            1.48412949407557        7.14934428111133        1.18673375264692
C            5.32347614947150        2.34454313597035       -2.88947616942326
N            5.78539404218914        2.90586359046697       -1.82818566868503
C            6.97828324350583        3.43639773545786       -1.66028069194451
C            7.50550495156373        4.00227050122105       -0.56128069155430
C            8.78212596416751        4.55622558520408       -0.44200360488572
C            9.76041604044276        4.64447152477629       -1.40538554744202
C            9.65735715067170        4.20778105875532       -2.64168408774030
C            8.08518796383524        3.91946403073890       -5.77937597621611
C            7.07173022430715        4.50988645356324       -5.20996672656320
C            6.10263780897284        5.14212764210035       -5.86357322535875
C            5.11347740613737        5.79678373754882       -5.28272376077472
C            5.01513640656454        6.28669449070982       -4.04622535690525
C            5.93821119260786        6.62526403899814       -3.17468606729618
C            7.22103042969579        6.65932573493467       -3.31693791586918
C            6.24968104904818       -0.82688310620980       -0.44696538115854
C            5.01918650196117       -0.46584044009528       -0.58070204530072
C            4.08733672207040       -0.84002939545659       -1.59691902040548
N            2.79211040923588       -0.35373811052839       -1.62342686023569
N            1.97871969298743       -0.70389293637225       -2.54658371813960
C            2.35294097254445       -1.53763357304338       -3.49907447762365
C            3.61491530685458       -2.05262242896362       -3.53487008649003
O            4.52648562764650       -1.71775581507817       -2.58051862183798
O            1.17031855179440        1.70404624500052        0.77684863787913
H           -1.91322310434775        1.20652032276536       -0.54221953438122
H           -0.74334723122903        2.39135106629270       -1.13311221515329
H           -1.55979539297141        2.65101683072552        0.41041255693075
H            3.52638247132032        2.70607021274242        1.41779129774768
H            8.47085405536366        4.55913062034345        3.66468508700789
H            5.67582766829972        6.47906784375454        0.13884952729297
H            4.72122035160131        5.67785299247868        1.36012353496150
H            2.93771719419932        9.64478799540451       -1.05012473164238
H            1.29643869470796        9.61053614789983       -3.73690160417323
H           -1.88767629647015        7.16947974797794       -4.66510886064046
H           -3.63608621535884        2.87362263997365       -4.30700071497154
H            0.84195549623096        3.38997907384483        2.12576492364774
H            6.88122710027257        4.02901913300117        0.32304891758447
H            9.02443195769421        4.96244775434302        0.52805713689228
H           10.69541778355852        5.10961278350815       -1.13497417971885
H            8.20981767090098        3.89462387234579       -6.82033873178571
H            5.81656782163721        4.66864589561492       -7.55122025675920
H            1.62028692924936        3.84970054859553       -9.47902665643871
H            0.46581777119242        7.87971099524362       -8.43900996107712
H            0.18695299678170        8.36560932815672       -0.90396483030659
H            8.41558061776798        2.24841253527027       -3.94973672716017
H            3.21145451584619       -5.72687659009410       -8.41238612155892
H            5.96241813413032       -7.53167327024534        0.79557538828969
H            3.87703346970627       -2.72882841369864       -4.33198901405936
