40
 energy: -8.706797781659 gnorm: 0.000510921116 xtb: 6.5.0 (97a52f5)
C           -1.93486452667559       -0.63308390598559        2.28219543743723
C           -0.61891979609436       -0.47704727155443        1.62502171432230
N            0.24669313223780       -1.46291912466711        1.42586073519104
N            1.28992591249225       -0.97418550468764        0.81241076842970
C            1.08519049073221        0.32941698056769        0.62277194620136
C            2.01736848122978        1.23162594333465       -0.04389889143517
C            1.72326345685098        2.58728853861818       -0.14684508752745
C            2.57655630487537        3.43954098957454       -0.80462218079873
C            3.74765210665935        2.96145048269246       -1.38491818870930
N            4.60641268307155        3.84083240549833       -2.12882055509873
C            6.00984355943783        3.93475106628657       -2.02153164423386
C            6.90727882383776        3.29939385412663       -1.16355186008765
C            8.24426338443284        3.59475070352914       -1.26835811121815
C            8.70716638661867        4.51723250652712       -2.21098244556906
C            7.83669607858716        5.15987653160756       -3.05723764723562
C            6.47437239179425        4.87086213360268       -2.96156413031486
C            5.32400003289528        5.37173511956978       -3.67399840426017
C            5.18938081493152        6.29703891977816       -4.71065169199273
C            3.93319229264614        6.55882727728596       -5.20122077136586
C            2.80881804744969        5.91213409819553       -4.68065438580969
C            2.92599707975003        4.99924684947495       -3.66191501706005
C            4.19275700163895        4.72724148336134       -3.14542676494772
C            4.04908844820122        1.60778448605468       -1.26909422696573
C            3.19768616306555        0.75597654310681       -0.60808136139657
O           -0.12765969987920        0.68780433842903        1.13419658866570
H           -2.06653720079974       -1.64999719031130        2.64976852388856
H           -2.73996625614116       -0.41608232478608        1.58116402849086
H           -2.02509898836124        0.05064518362322        3.12532447286975
H            0.81214310630053        2.95498776630230        0.29278343919024
H            2.35156596038889        4.48916925292765       -0.87544724254090
H            6.54415895507928        2.60062429484078       -0.43163469583844
H            8.94855050975773        3.11012449139431       -0.61250737372042
H            9.76195756302982        4.72875425150572       -2.27195375061901
H            8.18413203412558        5.87456208467472       -3.78201453696057
H            6.06004849467511        6.78580843447265       -5.11030019880737
H            3.81185758661494        7.27004234954977       -6.00148260181777
H            1.83551866280150        6.13247703768783       -5.08707351247551
H            2.06605358517946        4.48863490781773       -3.26784759336720
H            4.94715595674998        1.23373180059383       -1.72818798725543
H            3.42626097979323       -0.29236778463388       -0.52966479525551
