28
 energy: -5.392844243723 gnorm: 0.000488881451 xtb: 6.5.0 (97a52f5)
C            1.66113808187516        1.37191598892942        0.08760918545745
C            3.03080808056443        0.82398667407524       -0.01122183237813
O            4.14284521939352        1.57221506988427       -0.26574931977980
C            5.21333832362758        0.72640719331139       -0.25713939358418
C            6.61355534532063        1.15221375709698       -0.46728527571496
C            4.78937779395092       -0.57887942500270       -0.01359471764216
C            3.38262358222341       -0.51541064081633        0.14532093947520
C            2.50066744195054       -1.60751609216203        0.50042592643949
C            2.72852689702371       -2.89889113454745        0.21224420966297
C            1.78808952062865       -3.89588927522379        0.69193345353347
O            0.79707013261166       -3.66549052882267        1.33330817237443
C            3.87990404724392       -3.31633966214419       -0.64699368165242
C            5.22401014759165       -3.01160122783837       -0.07373046066393
C            6.12161187516925       -4.12694571296267        0.17285843534572
O            5.85690944946509       -5.28485263126589       -0.01660972140067
C            5.62962738822270       -1.74757203921496        0.14677482272252
H            1.66113257087446        2.43101560379037       -0.16932569912133
H            1.27355714396760        1.26993226037053        1.10117125714095
H            0.98542023925402        0.85697295784134       -0.59522623963150
H            6.64950273614043        2.21017217687239       -0.72624578936470
H            7.07465377604276        0.58856606037434       -1.27818276997080
H            7.20433390035908        1.00505740665612        0.43674878068783
H            1.60717021739434       -1.37026881009716        1.05128364138584
H            1.98333636407273       -4.93587597646020        0.46622852703603
H            3.79089133862517       -2.83182175271159       -1.62508068383898
H            3.82021172665419       -4.39230805468440       -0.84290843304126
H            7.10994352687105       -3.91599844084155        0.55919958499166
H            6.64108313288120       -1.58483374440676        0.47534708153139
