29
 energy: -5.651432786728 gnorm: 0.000424644768 xtb: 6.5.0 (97a52f5)
C            1.01223668905402       -0.04005001008230       -0.01573534901858
C            2.48985511050750        0.01821138163651       -0.01479237832503
O            3.20960531418279        1.18995081377110       -0.01464487255179
C            4.53490546592528        0.83608789272773       -0.01336848005609
C            5.71398378734488        1.62254323967982       -0.01244734816646
Cl           5.59900835857582        3.34316820359580       -0.01426521015542
C            6.93092486298331        1.00851253732638       -0.01035874457358
C            7.06990916087358       -0.41177682396226       -0.00909910839740
C            8.34220769796964       -1.07433443452762       -0.00595344472488
C            9.64290506455206       -0.34624295831034       -0.00142905537818
C            8.36074252207883       -2.42380230026903       -0.00727974607022
C            7.16177265094249       -3.22226972635855       -0.01077601718305
O            7.26641217560232       -4.44545479548483       -0.01269671944355
O            5.94258758683887       -2.59093120596515       -0.01179014676028
C            5.91722023280125       -1.21355368770856       -0.01117998652273
C            4.64602633697011       -0.56125967064619       -0.01287868118578
C            3.33422386812763       -1.07823608118910       -0.01383078948647
C            2.94872482040597       -2.50782524272005       -0.01346221562555
H            0.59687173466054        0.96727505417427       -0.01618493262419
H            0.64213391952644       -0.55840198403835        0.86852241738254
H            0.64325507233544       -0.55878543063043       -0.90023849197057
H            7.80092380651855        1.63746672036211       -0.01038056038112
H            9.52276241958950        0.73456160783100        0.00581680030041
H           10.22837571674230       -0.60362766281520       -0.88466469594018
H           10.22840345795276       -0.61488764754673        0.87845179046809
H            9.30004134828155       -2.94460177910519       -0.00548842821335
H            3.83433804346795       -3.14444631064899       -0.01333469595409
H            2.35956184672768       -2.75250571746485       -0.89740081904285
H            2.35964092846086       -2.75204398163102        0.87065990960040
