51
 energy: -9.263375652695 gnorm: 0.000962382278 xtb: 6.5.0 (97a52f5)
C            0.91808864515707       -0.02423088602534       -0.51881325543926
C            2.41915524472742        0.08242807922338       -0.21489752261729
C            3.02895725476200        1.23699336551797       -1.01619064351807
C            2.60818689755934        0.32887746526473        1.28278096270764
N            3.08399570788080       -1.19684302275507       -0.62780731258674
C            4.47638103753271       -1.40520695787638       -0.65897115842050
C            5.10590694895970       -1.68893681582619       -1.86608894922920
C            6.47872459432511       -1.89040677515110       -1.95876293214931
O            7.03851454797128       -2.15797734854641       -3.20275172138060
C            8.41189209418285       -2.35971948906666       -3.27654897918705
C            8.98892341129278       -2.63897996291189       -4.51052091086015
C           10.35317537513943       -2.85593760275631       -4.66868338644870
N           10.82700249788829       -3.13924122687591       -5.94901696925179
C           12.18483223397335       -3.49508760658761       -6.45663556044980
C           13.13877900206789       -2.31315195341308       -6.25445582931051
C           12.69279503863262       -4.75352797188811       -5.74483584121716
C           12.08167282436058       -3.79103867146577       -7.96171753547842
C           11.17714856759039       -2.77839533656586       -3.51965856599699
F           12.51757721988278       -2.95176287664334       -3.59257472405347
C           10.61506374983292       -2.50638639014056       -2.29793007584858
C            9.24933307133784       -2.29498320440175       -2.14742454751900
C            8.68521173016187       -2.01198442135545       -0.84021974780148
O            9.38571513155209       -1.94750696304212        0.16325183991601
C            7.24867051374101       -1.81141283530564       -0.78187264105232
C            6.62042954486646       -1.55544622404837        0.43227954894236
C            5.26374248061697       -1.37424893180295        0.51773785561924
F            4.67956094756578       -1.28050246387143        1.73710804948560
H            0.39240748845238        0.88039254085989       -0.21575443303070
H            0.47863923318236       -0.86582606474453        0.01446929516171
H            0.74347943256635       -0.17152640224355       -1.58363294643711
H            2.56174696230872        2.18556104180167       -0.75473026655532
H            2.89735307094153        1.07601213839400       -2.08512221074888
H            4.09690270217901        1.31875504908291       -0.82008912926324
H            2.03522940946215        1.19332680387472        1.61626808394776
H            3.65593278924244        0.51104503358426        1.51391709042534
H            2.28830731076017       -0.54055486272161        1.85507401843553
H            2.58784428601603       -1.53206133224851       -1.44950579213200
H            4.52385628045934       -1.73842618119657       -2.76683385063900
H            8.34420755816373       -2.69140864712770       -5.36734644788616
H           10.14587874316301       -3.17468206626485       -6.70174469195856
H           13.23633965077251       -2.06232509022816       -5.20194712610189
H           12.76641062428098       -1.43041336828775       -6.77138987366438
H           14.13115903344787       -2.54101431392768       -6.64060294947314
H           12.78657025364881       -4.58927832398921       -4.67497481356092
H           13.66819237967410       -5.05183747037031       -6.12655978269748
H           12.00090984937162       -5.58101278494757       -5.89342632409183
H           11.70994100314865       -2.92228346307403       -8.50308886529493
H           11.40231481340476       -4.62159395676589       -8.14797675986933
H           13.05450653848999       -4.05345882718192       -8.37545590065969
H           11.25015173066403       -2.45307334638276       -1.43291210867193
H            7.20973254263978       -1.52371907757643        1.33011633790826
