83
 energy: -16.798987486678 gnorm: 0.000615135177 xtb: 6.5.0 (97a52f5)
C           -2.20280663965168        1.78098520100833        1.42008475497411
C           -0.93609183673846        1.10011610097065        1.09431823464092
S           -0.64525279497509       -0.57132074557860        1.40201221081918
C            0.94966599666841       -0.53432183405570        0.70750669671937
C            1.78306722516675       -1.73613878094054        0.62832929776051
C            1.73257448810782       -2.68287372636455        1.65297536269408
C            2.47654209928724       -3.83547191648634        1.59405117121523
C            3.30091248984153       -4.09327560576440        0.50046047722597
C            4.08064400546539       -5.32007571488955        0.40374871306484
N            4.84234990810157       -5.63304190476239       -0.63944475777421
C            5.38478199497070       -6.83809968392185       -0.37707489362066
C            6.23942158483961       -7.55982123965141       -1.33144867997662
C            6.20323306582923       -8.94862788589544       -1.44221595052366
C            6.99536479442356       -9.60139790788056       -2.35927546984861
C            7.83203966024680       -8.88146782202988       -3.18785560142266
C            7.87060035489501       -7.50454130142731       -3.10049529909588
C            7.07884547044515       -6.84900249677113       -2.18459496995097
C            4.95534881674096       -7.28408075852998        0.89427542897232
C            5.34216888304458       -8.48967688684762        1.63416469464065
C            4.40374452309490       -9.16953688680599        2.40772012059165
C            4.75973581910117      -10.29368302731991        3.11819377347923
C            6.05944336844203      -10.75664053695347        3.07635603204993
C            7.00492079955414      -10.08948432137812        2.32395395606317
C            6.65287539987530       -8.96532798190226        1.61214123482108
N            4.12119506992959       -6.31436496738121        1.36325790588715
C            3.34819795905314       -3.15499513538260       -0.52854853674897
C            2.60343311651478       -2.00231061896946       -0.46980946313336
C            1.24817554301766        0.73716864376572        0.29344976492433
C            2.54566430633762        1.13972481079125       -0.31337160500818
C            0.17078531641744        1.67313968494402        0.52169968492681
C            0.23823707007091        3.10481135573415        0.17970110988742
C            0.05917072038877        4.13398394406193        1.04017047597550
C           -0.09929382579461        4.03753613079880        2.49087364469507
C            0.68406242453549        3.30652686020137        3.37972322390823
C            1.90304241294693        2.53745053335797        3.05637289684062
N            0.15145331131137        3.42705950003272        4.64581846198801
C            0.66263621508461        2.80473125834893        5.86388628137457
C           -0.95731488913239        4.27177349290885        4.59930201485670
C           -1.83317219366724        4.72605170361662        5.59120267023508
C           -2.85851378818949        5.55948330937174        5.23079192403220
C           -3.03166304151833        5.95805403908327        3.89823503198293
C           -2.17975457079147        5.52605340743812        2.91878799973450
C           -1.12476972245168        4.67151782880630        3.26579510367808
C           -0.01698286313120        5.45210532786550        0.28975331292974
F            0.72077448767853        6.39352138619711        0.89841895230119
F           -1.29828309957323        5.83180729986603        0.15564315182632
C            0.57189789573131        5.14028705392581       -1.11817306700391
F           -0.07797769881800        5.81059274572622       -2.07062856135535
F            1.88397218098648        5.39388330373016       -1.12189678567103
C            0.33460261890499        3.60595030248229       -1.25135615522784
F           -0.82764950039465        3.38227152712288       -1.88681146455452
F            1.36744072072421        3.04694670233217       -1.89954541236293
H           -3.04415829056494        1.09293413710846        1.33117052598781
H           -2.38163795344753        2.61865908616502        0.74437960083263
H           -2.18667897659221        2.16251710225086        2.44140765993844
H            1.09172404051883       -2.49601006447904        2.49715612751499
H            2.41891514083188       -4.55227684011905        2.39286277461110
H            5.53733787495705       -9.50788989006767       -0.80866303593276
H            6.95926699603225      -10.67597051385906       -2.43286122119839
H            8.45100560862152       -9.39382276257665       -3.90603610922726
H            8.51922100627546       -6.94190016885051       -3.75173448407726
H            7.09987782954036       -5.77532147885032       -2.11462676493296
H            3.39014666831895       -8.80927480406754        2.43420646862302
H            4.02246693561410      -10.81295934179377        3.70828571735014
H            6.33642913986470      -11.63683359043825        3.63311561337682
H            8.02073253118309      -10.44823587233872        2.29532955667328
H            7.39143080713628       -8.43600079660596        1.03559965732457
H            3.66708781397297       -6.30932229616690        2.27602301090081
H            3.97312946887261       -3.35658479231028       -1.38077464329787
H            2.62194455514970       -1.31087548004732       -1.29314317881759
H            3.37687506258991        0.58327697816193        0.12005590908320
H            2.73616549481792        2.20149859898219       -0.15640854851123
H            2.53464073374659        0.97438933339153       -1.39082257090668
H            2.34141176946462        2.88150413338070        2.12011435513629
H            1.67868959277741        1.47509910972078        2.96124922538156
H            2.65590576259797        2.65806799051105        3.83509962214501
H            1.20218434453763        1.89124093482508        5.62418067083116
H           -0.16041848255312        2.55175089755184        6.52843034047385
H            1.33451035039118        3.49104419991830        6.37496703604738
H           -1.69299722887085        4.42116513699533        6.61274715409944
H           -3.54311173232540        5.91711720610978        5.98219496279245
H           -3.84570742748027        6.61669591061934        3.64371995328218
H           -2.29350508897354        5.83787417029844        1.89704551599637
