39
 energy: -7.650890673515 gnorm: 0.000702323982 xtb: 6.5.0 (97a52f5)
C           -2.88297818347995       -0.06244745598425        1.30825345040675
C           -1.63250377504479        0.24154841753941        0.59084587176629
S           -0.30494795223362       -0.88885515621856        0.41407419096238
C            0.63238399366250        0.24848145149936       -0.49432527632701
Cl           2.20927231731611       -0.03472789006608       -1.13408219296021
C           -0.03487520255076        1.41396409956001       -0.64728842432567
C           -1.33479011850336        1.42020067400612       -0.03253645853102
C           -2.23401727658986        2.58749040413027       -0.05748531317783
N           -3.13308012048304        2.87431865461856        0.90535474745075
C           -3.71630468146246        4.01494090069016        0.55548965904974
C           -4.75396894005217        4.66919627054325        1.34463189382375
C           -5.15336451931391        4.11264318465768        2.56004189072061
C           -6.12669547616724        4.71331249430394        3.32298667874955
C           -6.72342174593017        5.88520892931035        2.88563312947176
Cl          -7.94585162268096        6.64329432354452        3.84294020891136
C           -6.33858961107446        6.44979200115761        1.67958660219370
C           -5.36433489448459        5.84928059201719        0.91688051389491
N           -3.20677796932459        4.48730270317883       -0.64195710842089
C           -2.26412936078993        3.58743452359639       -1.04642768410774
C           -1.46370648455871        3.67405572551475       -2.28081737356610
C           -0.56797350830977        4.76742964681249       -2.54468991928246
C            0.09484812078051        4.65035676729347       -3.71744437103052
Cl           1.24172344762241        5.80801207340941       -4.28793735448604
S           -0.36116653740161        3.20020944086751       -4.54783028267049
C           -1.47836101628105        2.74097126298396       -3.28250971936362
C           -2.29386372693499        1.51278489211309       -3.31537253253897
H           -2.83288184402664       -1.04524495233143        1.77813307021239
H           -3.73244793528217       -0.05592020666050        0.62449574089987
H           -3.07125888486644        0.67740440944232        2.08682401289989
H            0.37174831614285        2.25246127138859       -1.18840147609545
H           -4.68356215526582        3.20337878839477        2.89181799173707
H           -6.43573167077805        4.28697232910073        4.26226789998913
H           -6.81296817199783        7.35991454082916        1.35367520780155
H           -5.06856272977418        6.28865720964286       -0.01854853492330
H           -3.47085905581234        5.33485517215106       -1.14290590506934
H           -0.43182716848578        5.59631039796827       -1.86910430558634
H           -2.50171199103219        1.21511296320990       -4.34365443172431
H           -3.24815665852019        1.66265172743950       -2.80894499617782
H           -1.77456520603046        0.68848741834183       -2.82535910057079
