39
 energy: -5.152546855126 gnorm: 0.001168991926 xtb: 6.5.0 (97a52f5)
C           -3.65249851111414        0.17577501214096        0.27862945522092
C           -2.29600422412388        0.44771833011239       -0.13000795079272
S           -1.04274813961998       -0.77109267200768       -0.21062945033278
C            0.11632874459470        0.39753119885681       -0.75144436845890
Cl           1.76850721901178        0.05213423823030       -1.11846530235230
C           -0.42182005244258        1.60515221281482       -0.85267418773336
C           -1.78605921347737        1.66088586297491       -0.50602309608231
C           -2.57662778604711        2.90763514684488       -0.55171914850458
N           -3.90021965219594        2.98489331051193       -0.31350087046963
C           -4.20150258827860        4.27003737340928       -0.44289039422249
C           -5.54490694090542        4.83877693433192       -0.25550606340077
C           -6.57222187513347        3.95144432243042       -0.03804205238811
C           -7.85433550493245        4.12060423596524        0.21344653805665
C           -8.53594268894303        5.21651548401667        0.51569637414800
C           -8.06918884846516        6.22716960294131        1.31328490862515
C           -0.47437028882364        5.44444714734321       10.20811614396892
N           -5.70830317300189        6.13205844912857       -0.33388045678903
C           -3.12891007565333        5.02198578629058       -0.76202386502917
C           -2.08491002784774        4.19584165175173       -0.82902311610150
C           -0.75068203447162        4.58113909270008       -1.11139496831077
C           -0.27991787674897        5.87157021137169       -1.12557736077741
Cl           1.31006192728505        6.01633305874663       -1.48505384227446
S            1.17309729681407       -1.79752168529976       -7.84638116760663
C           -0.45321882601625       -3.65511260770929       -3.42182377252833
C           -1.68276670293025       -3.23211019844021       -3.21444121048682
H           -4.23929498031408       -4.35473352758846        0.53348625504125
H           -4.36059024706052        0.41896196215177       -0.48818863275578
H           -3.91214472168237        0.68637109449095        1.18434972244031
H            3.58089098065343        1.89302769102314       -0.60160380590216
H           -7.52887920998104        5.11058565142734       -4.38863171481319
H          -10.89770677002228       10.08398853716210        1.68601346305786
H           -7.36110261911127       10.69942318706658        6.08808544665791
H           -0.82778674014885        6.20000745078166       10.79997393002512
H            0.82993635194527        3.57624795561471        2.96806100095990
H           -3.09623463321740       10.52987946849050       -2.98623199288046
H           -0.89217056056628        6.71094767472419       -0.86102236572148
H           -0.84803849698416       -0.36901308680492       -6.79440675328367
H           -3.20898745176784        6.17994650400198       -2.03672840473571
H            1.86461909088756        0.25967756121324       -3.66540698504478
