24
 energy: -4.922939606299 gnorm: 0.000784230085 xtb: 6.5.0 (97a52f5)
Cl           0.96249348694164        0.05420077837770       -0.07212642662634
B            2.75575012730813        0.05706891501068       -0.07183502431003
C            3.50807869304067        1.37676199826739       -0.07156710660510
C            2.86714563897993        2.60526047808705       -0.07184924779592
C            3.60144675648175        3.76252832701613       -0.07151888179604
C            4.99348274239521        3.70312235005309       -0.07090636175102
C            5.63687348172670        2.49383547306162       -0.07063014752952
C            4.90542898248068        1.29660555448846       -0.07093735970742
N            5.53441368502519        0.06155160937423       -0.07048120696461
C            4.90941228665073       -1.17552659039123       -0.07032900119123
C            5.64471905868339       -2.37039098078726       -0.06947070401154
C            5.00523993779192       -3.58175173498883       -0.06915382658196
C            3.61339860862137       -3.64564793245506       -0.06968712824240
C            2.87536645936418       -2.49075498905747       -0.07054615009989
C            3.51232952411675       -1.26019329252338       -0.07088890799943
H            1.79186191539365        2.62895435014819       -0.07230367567392
H            3.10369677534749        4.71815713581899       -0.07172145592631
H            5.56595581254390        4.61604640835136       -0.07063722999083
H            6.71159933777454        2.44804396648376       -0.07013144054727
H            6.54958337530174        0.06319531675998       -0.06999412978138
H            6.71929009385419       -2.32112418365557       -0.06904296462397
H            5.58066073532830       -4.49282314584872       -0.06847530428041
H            3.11872954357552       -4.60287767364162       -0.06940727369019
H            1.80016294127241       -2.51792213794950       -0.07095904427329
