52
 energy: -10.661089912763 gnorm: 0.000265059085 xtb: 6.5.0 (97a52f5)
Cl           1.38727129933037        2.21105339109347       -0.50902382341439
C            2.61453026805815        1.05355371348488       -0.24859868553567
Cl           2.90922571124285        0.53070463761108        1.34934563767108
C            3.35179402443869        0.57036080995689       -1.33029047541995
C            2.72148709396892        0.43655542316253       -2.63951642642409
C            1.33007933998163        0.42131646864817       -2.78215646178478
C            0.73806706571911        0.18477557241946       -3.99898494822786
C            1.52005145024314       -0.04388248486144       -5.11145600693859
C            2.89502036041125       -0.01494871831805       -5.00166823292360
C            3.50941246765295        0.23700225557003       -3.78875101859890
C            5.01511434261601        0.38143184126626       -3.70810848625331
C            5.47639225448876        1.81928352646849       -4.11699883082859
Cl           7.24207158702918        1.89385946577815       -4.00547912835892
C            5.10872394432916        2.09637742650658       -5.55537536166967
C            5.88936344467126        1.57688651893909       -6.57126142557203
C            5.54054894543931        1.74026297900250       -7.89654568773663
C            4.38907066465573        2.42632547885303       -8.22055364959047
C            3.59978065744573        2.95080754079772       -7.22543547238391
C            3.93686752890377        2.81134869465540       -5.87488454542060
C            3.13837955888376        3.42883199209144       -4.82344993235548
C            1.86123418395535        3.91472549140725       -5.10972572140903
Cl           1.25200271195871        5.32588634224664       -4.36525749164967
Cl           0.87280201874600        3.09995680047014       -6.23861533799778
C            3.73420668553896        3.56549423724612       -3.50015258322654
C            3.17633445125680        4.38890605488457       -2.51764597977606
C            3.76962413685378        4.55546417146885       -1.29045868612820
C            4.94968185835985        3.90357462341462       -1.00465162505773
C            5.51167833553342        3.06690536066847       -1.94686589502706
C            4.91533892451454        2.86439007273843       -3.17800612921502
C            5.54392958452688       -0.01288108721026       -2.34627915749955
C            6.84548596552937       -0.45969135720302       -2.21687766263929
C            7.38755562444857       -0.73254096496201       -0.97805793380016
C            6.62531956362024       -0.55272240680015        0.15614044367981
C            5.32735427468818       -0.11837797848685        0.04576885788661
C            4.74340766996617        0.14618568045209       -1.19666255781647
H            0.71664791246715        0.59115581412567       -1.91623347361577
H           -0.33616273532911        0.17891232897992       -4.08483621099760
H            1.05854935749571       -0.22321067059645       -6.06854379761625
H            3.50480832279244       -0.15656623340604       -5.87707554391992
H            5.45381248282601       -0.31108456768596       -4.44052748029541
H            6.78383062859248        1.03863038105248       -6.31132424637576
H            6.16301706539884        1.32909023162412       -8.67401252050037
H            4.10928300177462        2.55124819368454       -9.25372800700550
H            2.70328803160285        3.48358204766111       -7.48468933622772
H            2.26165247502310        4.91316763152429       -2.73610542780291
H            3.31446390068578        5.19575706272748       -0.55271158957967
H            5.42039922997426        4.03095075691996       -0.04387427833879
H            6.41541744033414        2.53002331767617       -1.71901504384700
H            7.45013279656224       -0.56497139529760       -3.10125608802792
H            8.40672541854281       -1.07302707698598       -0.89706310505188
H            7.04674128705843       -0.75661881878364        1.12686109879013
H            4.73678538519319        0.00827942332869        0.93743547184986
