24
 energy: -3.605714236050 gnorm: 0.000828158106 xtb: 6.5.0 (97a52f5)
Cl           1.06842999461641        0.66803376782836       -0.16571916321796
C            2.77955805598309        0.92365613773154       -0.13703651762153
C            3.62196193940181       -0.04309979148349       -0.60039057898750
N            4.97958793543199        0.15155487024954       -0.57987666902913
C            5.84254700261399       -0.90153833520938       -1.10789706718065
N            7.26539562998257       -0.60281458068219       -0.96880982035992
C            8.17386628692742       -1.54996221428306       -1.36797042544565
C            9.51155443082606       -1.30340155900331       -1.27542757329461
Cl          10.64998148413468       -2.50617645162097       -1.77810499046351
C            9.95970926509602       -0.08138206666458       -0.77449723503629
C            9.05793265049711        0.85914202242337       -0.37595143811878
C            7.67445561408149        0.61615510005996       -0.46075567233156
N            6.84164804488947        1.57370193233061       -0.04182441824215
C            5.52941414910379        1.32286350120257       -0.09334395490283
C            4.64856983425880        2.31370417800888        0.37893152572995
C            3.30022590608106        2.11889802184702        0.35846808194726
H            3.22448756193886       -0.96588224553532       -0.98798703703572
H            5.61627275313542       -1.04293208799217       -2.16830454003246
H            5.62533560802561       -1.83299115122860       -0.57808750383061
H            7.82329388692276       -2.49063814788262       -1.75783748999903
H           11.02052845480641        0.10219991760446       -0.70796514635065
H            9.38901867824760        1.80688163807590        0.01580797832190
H            5.06620325407677        3.23140819211739        0.75912165793942
H            2.62340157892082        2.87655935210609        0.72063799754200
