37
 energy: -7.064215716451 gnorm: 0.000798925704 xtb: 6.5.0 (97a52f5)
Cl          -1.96609972198734       -2.62207893315474        2.53442329830963
P           -1.27946611404997       -1.30267270861631        1.08597218050590
Cl          -2.15549351858266       -2.18794718436709       -0.57320152860531
N            0.32961825821059       -1.78242345125363        0.94935422598143
P            0.55196620884852       -0.71013657094545       -0.34922308467444
Cl           0.51078293473609       -1.94209444871240       -2.01215849091623
Cl           2.58252069160333       -0.32544163001738       -0.37258618267908
N           -0.45680015642001        0.53550797791705       -0.88498373890852
P           -0.88414473374322        1.09402347323074        0.65080294201021
Cl           1.02294959324826        1.84150990370364        1.07095007732439
O           -1.51446968048050        2.60805537384620        0.55416968550813
C           -2.80675562663380        2.68868628892628        0.76834218100822
C           -3.37915636027438        4.01302984595939        0.90323219794367
C           -4.62320864347508        4.19900080787266        1.39752867077819
C           -5.44396013107160        3.09839779295755        1.76792759594153
C           -6.71403307307952        3.28177879380206        2.35102717847812
C           -7.50777513091797        2.22153138719831        2.67460350612210
C           -7.09283443046721        0.88956620066410        2.41695002433049
C           -7.89223666243122       -0.21983828813958        2.72213909282339
C           -7.46290310265261       -1.49995423401513        2.43787744345868
C           -6.24238251449074       -1.71879467905572        1.83855552850810
C           -5.40448741800248       -0.64263132561252        1.51245620684602
C           -4.17034320530535       -0.82236057224890        0.85401947922976
C           -3.35616037075872        0.24281659270662        0.55904128298739
C           -3.70828191967291        1.55208184863821        0.94566122484799
C           -4.98428071069366        1.77769667886618        1.51461440445467
C           -5.82586915737044        0.67405379606039        1.81794439063061
N           -1.18925367409876        0.12973659349879        1.99007414907031
H           -2.75110549522321        4.85251957363213        0.66282653583621
H           -5.00589749852076        5.19627614798491        1.53152817503263
H           -7.05468073624585        4.28481778735654        2.54255070824878
H           -8.47214709236594        2.38679935905448        3.12302532427385
H           -8.85362040938807       -0.06248344352767        3.17968571097242
H           -8.09482430743883       -2.33891393798751        2.68111165256059
H           -5.92211366003110       -2.72099306199223        1.61143237909331
H           -3.89126407371121       -1.81905038049909        0.56416142326074
H           -2.41871835709160        0.07613862633097       -0.00097585064887
