62
 energy: -12.933558092266 gnorm: 0.000987837418 xtb: 6.5.0 (97a52f5)
Cl           3.24167365189828       -2.11291280278749       -0.71589454978679
P            3.94629350521904       -0.39950536558746        0.16820271886916
Cl           5.98238805518944       -0.54564500312792        0.08003828764824
N            3.35677072047020        0.83395058701112       -0.78443342434653
P            3.20105030151593        1.95881545469445        0.45658901971544
Cl           4.60933826978407        2.37987979937396        1.90960821648122
O            2.82004404818521        3.48572749081313       -0.02227144304186
C            3.67978060449551        4.13200152281390       -0.77114883094030
C            3.25802838182563        5.45234992574706       -1.19258780403189
C            3.98954302687817        6.21033927267466       -2.03638982551757
C            5.22836080876113        5.74925161602294       -2.55159554917634
C            5.98596015472878        6.52764998712124       -3.45013971381884
C            7.17944902404197        6.08836021329638       -3.93936013825529
C            7.70594820760806        4.82864606769524       -3.55666498632145
C            8.93106861226800        4.35100077634802       -4.04097606707839
C            9.41879127182863        3.12301231367224       -3.64403691370991
C            8.71268669540158        2.33784866303773       -2.75990521452957
C            7.48100249913331        2.77054924236986       -2.24650211613854
C            6.73329822053346        2.00441868761212       -1.32920170355740
C            5.53855764813314        2.44947905219866       -0.83863404547642
C            4.98342112807657        3.67002408237214       -1.24055365627133
C            5.71665646517700        4.47861495132913       -2.14326828672673
C            6.96713498683207        4.02636589318702       -2.64910881684153
N            1.75288603670350        1.66628301025812        1.25860655933494
P            2.17070756817326        0.40158247706595        2.23995728610936
Cl           2.67783498370293        1.16371059490032        4.07902887877064
O            0.92184617538530       -0.60268964694402        2.54344214356431
C           -0.11461570798988        0.02148131237381        3.04949142545210
C           -0.17258536536766        1.44632839393744        3.30057037214751
C           -1.26461789955259        2.03017400465813        3.84460757390355
C           -2.41861714042751        1.27404631811413        4.18905176776518
C           -3.56249475291531        1.87407394620003        4.75362083798968
C           -4.66707839178472        1.13975396580152        5.07096795680151
C           -4.70823798464007       -0.26069496312301        4.84450411760426
C           -5.82880995141274       -1.04156221377908        5.15625248895627
C           -5.82971967020531       -2.40124625124259        4.92083630872359
C           -4.72970217342305       -3.02501461008890        4.37404118042136
C           -3.57985447869951       -2.29159245007261        4.04252571862143
C           -2.42866400048079       -2.89416414520866        3.47942962773117
C           -1.32785607516947       -2.14777997382102        3.16696488537764
C           -1.29906976014245       -0.76689465352107        3.38931356918632
C           -2.42316079878570       -0.12638340854830        3.95168870016784
C           -3.57167910480203       -0.89396737746066        4.28052796793739
N            3.51984869325886       -0.52218661289792        1.79744054410154
H            2.31403156991317        5.80730517193253       -0.81923988962220
H            3.63398707164191        7.18121695140597       -2.33569645670636
H            5.60392799749845        7.48812517589449       -3.74987666273132
H            7.74126713333785        6.69873643243251       -4.62486105209761
H            9.49289016342492        4.95628641169465       -4.73096098016387
H           10.36357244367967        2.77489188854927       -4.02853582534577
H            9.10179069554972        1.38262475701445       -2.45293946030582
H            7.12015613533284        1.05061945547958       -1.01908390968411
H            5.02937151202384        1.83419216199437       -0.09426582586749
H            0.67236241928169        2.05142294788580        3.02891430384149
H           -1.27628470174535        3.09226242328113        4.01879565598573
H           -3.55354833366382        2.93534502275339        4.93264542080546
H           -5.52939964988296        1.61987191713336        5.49978029814149
H           -6.69450842354530       -0.56702668919965        5.58442960147884
H           -6.70318544614180       -2.98248480565726        5.16768347478652
H           -4.74280123123344       -4.08597034799186        4.19471470317194
H           -2.43239438188847       -3.95497085224352        3.29873890324378
H           -0.45576146314563       -2.61150816690147        2.73849263326853
