62
 energy: -12.945916783456 gnorm: 0.000979271605 xtb: 6.5.0 (97a52f5)
Cl           0.57884858027316        0.52963508287925       -1.72164993893506
P            2.63344143146892        0.52460984414929       -1.92297636400656
Cl           3.01243218416342        1.73238059533871       -3.53407100043784
N            2.83464700349258       -1.07364205794648       -2.34494937253525
P            3.93011455180888       -1.48707420740952       -1.14150339500329
Cl           2.98678278650778       -3.20415923384982       -0.46927185775365
O            5.23723541263076       -2.00548218709947       -1.99522677815650
C            5.87626775765718       -0.96385255046908       -2.47254580088619
C            5.42757578984553        0.38705516670315       -2.19756517115485
C            6.07074033532274        1.46488469991039       -2.70716566731572
C            7.21334243323640        1.31793780893799       -3.54026198663408
C            7.88099996115990        2.43271606443767       -4.08642374645167
C            8.97674776328985        2.28418216931573       -4.88460493898849
C            9.48961738948611        0.99806926904957       -5.19648187947599
C           10.61487112554320        0.81368325513204       -6.01037327698662
C           11.08349823116978       -0.45347988023678       -6.29093257379370
C           10.45717175481742       -1.56857125306398       -5.77869261053108
C            9.32638297066774       -1.44275772035146       -4.95674932396514
C            8.65374193497805       -2.56345228815715       -4.41114214048046
C            7.55505975979881       -2.40324027960567       -3.61504453988277
C            7.05996471298131       -1.13097303023272       -3.31080159046568
C            7.69876358435945        0.01410499831753       -3.83240857326749
C            8.83967056195306       -0.14377789114420       -4.66286915189075
N            4.56279805777907       -0.89700421288767        0.29838129766648
P            3.23678304665988        0.00154318974079        0.74699298879471
Cl           3.84598517191169        0.95617568386700        2.46017973180532
O            1.79484477149554       -0.72330031203709        0.94062212266486
C            1.84785622176213       -1.67117012882006        1.84237706602559
C            3.04189112388070       -2.00941992316144        2.58877503472196
C            3.04071298328731       -3.00238400670582        3.50822936011796
C            1.86942916733139       -3.76357146496845        3.78006907216106
C            1.85929227375844       -4.80378820083549        4.73138162371227
C            0.73306698475358       -5.53359802496609        4.97553845006804
C           -0.47591252174349       -5.27576504861498        4.27789567152358
C           -1.64679581078194       -6.01167754785010        4.50105661427919
C           -2.80042968704017       -5.73312207317106        3.79690819545668
C           -2.83078336315386       -4.72566873306283        2.85748953806518
C           -1.68734248815495       -3.95588390461695        2.59335384943123
C           -1.67469930255751       -2.91575556484941        1.63149130311899
C           -0.54117710940265       -2.18961045844559        1.40014424809008
C            0.63850194809546       -2.44596771803037        2.10587888223364
C            0.67452769782041       -3.47613209821251        3.06707285290546
C           -0.49865422037577       -4.23586520200523        3.31440018567120
N            3.07546931218247        1.20885498218902       -0.43246611971198
H            4.56356594402063        0.51302003214906       -1.53887756402998
H            5.71358788850467        2.45616385221464       -2.48946575612373
H            7.50887067327808        3.41748695404377       -3.86284102794963
H            9.46979989763403        3.15003380199349       -5.29111362600130
H           11.11332217197044        1.67634820174186       -6.41715013014743
H           11.95125947691896       -0.57209877795916       -6.91916797391629
H           10.83219566355844       -2.55157044454668       -6.00489514258556
H            9.02035654183069       -3.55009743571937       -4.63528756175457
H            7.04577760131354       -3.25892183124891       -3.20576736522217
H            3.94491464769167       -1.45906508117494        2.39344649822011
H            3.94146375608257       -3.23491437864366        4.04940189184875
H            2.76577874943997       -5.01937501253953        5.27006955545965
H            0.74953127392800       -6.32350196044602        5.70608102290151
H           -1.63653328205539       -6.80259719674441        5.23064125490638
H           -3.68967622855624       -6.31281968421335        3.98362537142002
H           -3.73640853993059       -4.51998155777157        2.31391960541546
H           -2.57378572948354       -2.70597405030829        1.07874729187686
H           -0.52704278028016       -1.40953103807847        0.65752336578709
