34
 energy: -6.947815375156 gnorm: 0.000347055428 xtb: 6.5.0 (97a52f5)
Cl          -2.21923827036725        2.25788296426726       -0.03430658842966
C           -1.01265034714109        1.03480720663480       -0.00594738790709
C           -1.38137411414741       -0.30201928353995        0.08914316242713
C           -0.41639745475178       -1.28931788592108        0.11555820944999
Cl          -0.88107851345192       -2.93477485122023        0.26687960899737
C            0.94286050291626       -0.94748971756449        0.03951039634118
B            2.02821030839679       -2.04781930405601        0.06689109587996
C            2.13895514509075       -3.06547784968965       -1.07150437481700
C            1.29675013863772       -3.04487513658634       -2.17607079342676
C            1.43481188995810       -3.97690734613449       -3.16902841454121
C            2.42575268769827       -4.95193288921788       -3.07717982671706
C            3.26680620326072       -4.98256420129376       -1.99828904531637
C            3.14366026958841       -4.03623803122502       -0.96903697989180
N            3.99167195015736       -4.05049419051616        0.12151151736491
C            3.96522937178932       -3.17197152690249        1.18739341721307
C            4.88100045618730       -3.28435232804618        2.24512439752087
C            4.83895708362099       -2.41230274129091        3.29873062635710
C            3.88254706233826       -1.39989565156321        3.33599943060473
C            2.98021592713074       -1.27207938881632        2.31463936780206
C            3.01288249977095       -2.14579312693285        1.23512636512834
C            1.30516641874796        0.40495471964155       -0.05960171246042
Cl           2.95991908912228        0.84385173394749       -0.18324727240523
C            0.33101289789830        1.38337574672191       -0.07809216933886
H           -2.42192112065403       -0.56746066067375        0.14617532041994
H            0.53035170429725       -2.29237022137390       -2.23402154086124
H            0.77605751656183       -3.95941454501907       -4.02154234938292
H            2.52887148674870       -5.68422555612554       -3.86096377229457
H            4.03358844721923       -5.73367118119089       -1.92702674177213
H            4.70251405002396       -4.77554151849609        0.14130363773143
H            5.61787737275348       -4.06751857281870        2.21580096747891
H            5.54812558239664       -2.50719927471859        4.10450022064761
H            3.85611318132963       -0.71650144123175        4.16865474429699
H            2.24268175621746       -0.48929674404226        2.33027306589049
H            0.61211882065533        2.41865279499552       -0.15313658198924
