54
 energy: -11.121856083865 gnorm: 0.000265621691 xtb: 6.5.0 (97a52f5)
Cl          -2.59980973006473        1.75830207918345        0.96894929138969
C           -1.25111579594116        0.82664724453758        0.43333757305458
C           -1.28931097835533       -0.55669053379537        0.50943871795464
C           -0.21360994523220       -1.31092351917717        0.09033881099223
Cl          -0.25811471988836       -3.01506854740461        0.33866527127810
C            0.94451303846704       -0.69165633158350       -0.44407074965892
C            2.08331928656058       -1.47980697532712       -0.90311470748408
C            1.86352809042787       -2.72307721875331       -1.63482894618644
C            0.84037491891837       -2.83380574624809       -2.61023611400989
Cl          -0.09329775978225       -1.45678360219170       -3.05752290448974
C            0.63586936101573       -4.01647833783595       -3.28923102506265
C            1.44124004163834       -5.11730394792444       -3.04319058740393
Cl           1.18016636723731       -6.58772878679226       -3.90559266764517
C            2.45617235799786       -5.03536345322412       -2.10285488951512
C            2.66663852571072       -3.86775371690558       -1.39995430081528
Cl           3.85082629902337       -3.86216141354251       -0.14847834337514
C            3.44093813923919       -1.01898174152651       -0.63968122309745
C            3.79216818145669       -0.42302536362300        0.59692121793160
Cl           2.66127538607650       -0.36753542484108        1.89514057867754
C            5.06879478593327        0.03965705342522        0.82294210222049
C            6.06022485922640       -0.07968062619262       -0.14662747183070
N            7.38256827491582        0.41862701555164        0.09215913499966
C            8.16159889106303        0.19800043736335        1.24692866916279
C            7.90205797491770       -0.54260225751431        2.39818899483253
C            8.86510768145368       -0.60277115924808        3.37750703129432
C           10.08681698948130        0.05848410876423        3.22873922078382
C           10.36437110577681        0.78473923453479        2.09613168361616
C            9.39588723048535        0.85485660307358        1.09133047593665
C            9.38010504199053        1.50041156222888       -0.19520987602719
C           10.32147536354162        2.28630109324958       -0.86513967407352
C           10.00250710538024        2.78119639940451       -2.10641039646389
C            8.76257974138638        2.51201178237560       -2.69119267877288
C            7.82673911457088        1.73944694500878       -2.04527527190219
C            8.13669917293984        1.21995022020189       -0.79007469805831
C            5.73722691288891       -0.68003098422991       -1.36006939538123
C            4.46278366582323       -1.13332834529705       -1.61456558153876
Cl           4.10915850480159       -1.72848913104784       -3.19183131913982
C            0.95060297194307        0.72451452497618       -0.51806251446255
Cl           2.25701269889350        1.55593484849525       -1.27380422619973
C           -0.12846584902665        1.46028094011379       -0.07553533014962
H           -2.15747235779248       -1.04468921785669        0.91610084421966
H           -0.14175349257013       -4.07897444014665       -4.02993483118683
H            3.07225256459449       -5.89508919044787       -1.90660893553375
H            5.29871328927039        0.50535086851176        1.76354222204961
H            6.96745567732141       -1.06369240930282        2.50107956616331
H            8.67672896897101       -1.17110477694591        4.27339573811372
H           10.82300707965543       -0.00584992785097        4.01282740494792
H           11.30493843919722        1.29125040593771        1.97173195471962
H           11.27175627111587        2.49401582232093       -0.40632559105407
H           10.71695507533950        3.38942136626689       -2.63600883473466
H            8.53602559919944        2.91890311249655       -3.66291814443085
H            6.86485961087088        1.54438147325273       -2.48386136227759
H            6.49247241613862       -0.78816384751033       -2.11663186754940
H           -0.10650244420329        2.53365583301242       -0.14350204486047
