35
 energy: -7.567306238948 gnorm: 0.000518005591 xtb: 6.5.0 (97a52f5)
Cl          -2.09974108616831       -0.16761501163088        0.11119927527423
C           -0.37535690064237       -0.09351842853448        0.13481898093583
C            0.36886423567131       -1.26379452327811        0.15915414404880
C            1.74108125148128       -1.20607447180195        0.13874715569516
C            2.40483634326353        0.02397243904093        0.09080429522447
C            3.87502937841096        0.07641953944108        0.04061023312247
C            4.58559681585638        0.78870877238958        0.97508890637060
C            5.98700142775512        0.77125701134083        1.00468283871738
C            6.69299645455494        0.03551779565705        0.10312490714364
C            5.99198817244330       -0.68425899580511       -0.88165105835293
N            6.50634132059528       -1.45452755120438       -1.85431942533587
C            5.47063197196692       -1.88531982388809       -2.56125301406164
C            4.26451967678045       -1.38629352439604       -2.06435205345953
C            2.93852584410209       -1.57638410491465       -2.66654206042323
C            2.49310930787174       -2.84661866504135       -3.03477770186437
C            1.24526695438164       -3.01916636741888       -3.59017215041467
C            0.42110020775195       -1.93049798177703       -3.79733474966771
C            0.85141517498612       -0.66438976520327       -3.45362265193368
C            2.09825944921465       -0.48702529010428       -2.89862625447759
N            4.59211664317003       -0.63471300844243       -0.94125155462639
C            1.64017024669907        1.19537097558458        0.09055683896032
C            0.26761400628009        1.13561876531381        0.10783467992488
H           -0.14443391191124       -2.20980753497988        0.18412411041348
H            2.32402687810551       -2.11057670967128        0.14778242755442
H            4.04594685004285        1.34165597795636        1.72411162845644
H            6.50782115286826        1.33410753315873        1.76181768527654
H            7.76733870411804        0.00053181953087        0.12038085691927
H            5.56531455444541       -2.50378880336751       -3.44183605873393
H            3.13441398776951       -3.69402384170391       -2.86469907147251
H            0.90951454820904       -4.00653954884193       -3.86164844563903
H           -0.55715499975687       -2.06860018071474       -4.22771188256781
H            0.20864687106725        0.18533455350170       -3.61503846233315
H            2.43911994795240        0.49772909408013       -2.63027189344865
H            2.14191856697385        2.14671523624268        0.05480831540576
H           -0.32463004631026        2.03459461948084        0.09165120936909
