50
 energy: -10.591062037917 gnorm: 0.000366357547 xtb: 6.5.0 (97a52f5)
Cl          -1.85316764413360       -0.64341730638572        0.13859646158267
C           -0.13608661282771       -0.43594343533985        0.11131580628057
C            0.60201168923291       -0.89844929157538       -0.96826954098918
C            1.96642178886402       -0.73324252714185       -0.99015035498290
C            2.62646985155790       -0.09977592033404        0.06691678472359
C            4.06180273297929        0.08220327568807        0.05193323782632
N            4.73520347495391        0.67680068629684        0.99985412135665
C            6.09494651501003        0.69608377804376        0.75640712591970
C            6.99578612591765        1.42661262371283        1.66714089316046
C            8.05820187583693        2.18759948773240        1.18085101531586
C            8.88939122998204        2.86662981180043        2.04274734366635
C            8.67024834546230        2.80886573780011        3.40500110244469
C            7.61071040059134        2.07603932043545        3.90261799417486
C            6.77726974032951        1.39629298178515        3.04291988677726
C            6.50309340346980       -0.00379861523196       -0.37870445463181
N            7.80217346316905       -0.38330419620727       -0.78398840560511
C            7.95892732981627       -1.07821721212136       -2.03449989869931
C            8.80682290209916       -2.17983645292111       -2.12750947614886
C            8.89962802220217       -2.90363100851971       -3.29466124038281
C            8.14706509113845       -2.54326868259908       -4.39475955498368
C            7.30759487192554       -1.44967586395855       -4.32461598634313
C            7.21896436241468       -0.72270059640369       -3.16032709799315
C            8.89078537400867       -0.45526445797292        0.15772043495216
C           10.14933630169153        0.03256720722952       -0.18444562781414
C           11.19670707231299       -0.04715050848199        0.70507007660897
C           11.00863224180291       -0.62258215919207        1.94662721197786
C            9.76983840365421       -1.12502408584312        2.29394491131062
C            8.72085988994750       -1.04778801097477        1.40637833160084
S            5.09617900750890       -0.46171528764607       -1.26023439354687
C            1.86878912847512        0.35896626722791        1.14737649141133
C            0.50426618732528        0.19283623872496        1.16916134410186
H            0.09092397945909       -1.38731195948467       -1.78011162742069
H            2.54366576902120       -1.09170905115672       -1.82397752112994
H            8.22455182731677        2.22888315475876        0.11851368525604
H            9.71404355513801        3.44122100009459        1.65408068528116
H            9.32408453262345        3.33752379336664        4.07912478022028
H            7.43674085921758        2.03493170335615        4.96540092153128
H            5.94946467896467        0.82400684575926        3.42366198917287
H            9.37658185181580       -2.47165813822901       -1.26314135258750
H            9.55568828829689       -3.75700291913818       -3.34766498028715
H            8.21674626775094       -3.11300172919077       -5.30689161830464
H            6.72407340230557       -1.16317311448679       -5.18424599411849
H            6.58099004816806        0.14230854342874       -3.11204951283965
H           10.28581576291974        0.48093195638800       -1.15296825176134
H           12.16426652068340        0.34156466282278        0.43288913416814
H           11.82836328240800       -0.68102654406262        2.64365303044446
H            9.62358238604140       -1.57611399138445        3.26163835478139
H            7.75347167119862       -1.43939329463285        1.66761042967986
H            2.37331037243366        0.84451707415328        1.96414725112438
H           -0.08253762248720        0.54669021001506        1.99954605372297
