50
 energy: -8.591044273904 gnorm: 0.000802545438 xtb: 6.5.0 (97a52f5)
Cl          -1.16965362141735       -1.49132413463976       -0.12151019393077
C            0.50742265523309       -1.10938224770202        0.04896299495455
C            1.42824665556103       -1.60405779205806       -0.86223991795944
C            2.76148917332345       -1.30280676554965       -0.72614155421521
C            3.20431747285278       -0.49976894585293        0.32833108215366
C            4.57989380507636       -0.19400187691160        0.47235948497132
N            5.09471134558687        0.65264581636934        1.27035269274625
C            6.45206314876329        0.64499188771244        1.21838745083828
C            7.28363418084622        1.42436016643470        2.11368252238679
C            8.67645424269497        1.33645898207446        2.07857450628214
C            9.44946935863102        2.08539304388871        2.93811584729007
C            8.85121066827797        2.93537859377148        3.84764007248885
C            7.47466305435990        3.03594972624452        3.89602410645987
C            6.69801141970469        2.28898593191651        3.03847296309958
S            7.14293045467862       -0.46056371015104        0.17131983357013
C            6.55543080286272       -1.03914438549236       -1.30198802786848
N            6.05629775746283       -0.08684616272076       -2.02571106759216
C            5.41382755237021       -0.13715988403220       -3.20161844686487
C            4.91903294948913       -1.23288708143494       -3.82715922733878
C            4.84430668057757       -2.48975077872657       -3.42627803041440
C            4.40030249237130       -3.52789663812330       -4.12021076837998
C            3.99554474976269       -3.53883218264374       -5.33695242291971
C            7.22513364138546       -2.09282358706947       -1.77170532036310
C            0.67641529886121       -3.40344835720750       -3.91844548966469
C            0.05086909122775       -4.22383498777717       -3.07012972718596
C           -1.24689374596848       -4.10532923234468       -2.70889280381970
C           -2.15249293731129       -3.20998669818128       -3.07102802132667
C           -2.01800147830477       -2.21178554879380       -3.86045640102754
C            4.81787481209604        2.63273244169964       -5.58462378232169
C            2.26541783113257       -0.00405701895588        1.23538862914324
C            0.93176549821612       -0.30660672627971        1.09725357356887
H            1.07948173732586       -2.22135877498803       -1.67139285160777
H            3.47969398760410       -1.66454352750795       -1.44034081406093
H            9.14350412963705        0.67573994069315        1.36922244722799
H           10.52378847420141        2.00814105985021        2.90067114467151
H            9.45846353559093        3.52003160659624        4.51917303309722
H            7.00790706924388        3.69916023317156        4.60580383039831
H            5.62504007101817        2.36134273043893        3.07065803930399
H            5.27144986391565        0.79499285784437       -3.72822616369535
H            4.39039051561506        0.08281592560495       -9.45923456833473
H           11.38354156167127       -5.69128789238553       -8.36813714098581
H            8.86929735567163       -6.29857781683933       -0.63779628189455
H            5.58218260177025       -2.46544815251072       -0.09449508628318
H            1.68609263269704       -3.49736180810531       -4.19346327676345
H            0.60762417018894       -5.03834507426355       -2.63452795939194
H           -6.40633722210583        0.76506075205434       -4.58575546666498
H           -0.83650171930877        4.03168578826792       -1.74894779437757
H            2.45878919336578        1.35046494903607       -1.93550083643946
H            2.60427413843790        0.61759302783178        2.04558969172027
H            0.20383287832151        0.07057228764520        1.79509547943786
