34
 energy: -7.437413322630 gnorm: 0.000395240858 xtb: 6.5.0 (97a52f5)
Cl           1.99030882306394        1.07045173338180        0.55986650533891
C            0.32583159713553        0.75679063138464        0.24746521518216
C           -0.35375722349756        1.26037145068310       -0.81705286571516
C           -1.70971151104798        0.85479503284435       -0.85513102171845
C           -2.10066010683351        0.03432609702158        0.16955441560601
C           -3.45668224800060       -0.47893746579556        0.25416925077848
N           -4.26383933547454       -0.08676056612229       -0.72624510035501
C           -5.55835932423148       -0.54210579798647       -0.79326818670170
C           -6.38332588857563       -0.10167965258989       -1.84064251753978
C           -7.67690908919445       -0.53384644892706       -1.95274827492497
C           -8.20244026455058       -1.42547848548317       -1.02370770396912
C           -7.42553694031613       -1.87558390049970        0.01026767194191
C           -6.10073876500225       -1.44423391375739        0.14144017713932
C           -5.23636033807316       -1.86211622795868        1.20127630185396
C           -5.47154159021352       -2.73167305201354        2.26907558058335
C           -4.30966647595372       -2.77478713396328        3.02040816350000
C           -4.04616736549301       -3.50389164798912        4.20310084222800
C           -2.83541795027349       -3.36678372069810        4.79232180274764
C           -1.87059704903725       -2.50681443261410        4.22865343356017
C           -2.13226704768517       -1.82161528510994        3.09348312458253
N           -3.34958311252299       -1.93583151263336        2.43604463959063
C           -3.92321343377764       -1.37370437836998        1.27849956243897
S           -0.71186217460160       -0.22974152806544        1.23216055778660
H            0.10552224435776        1.90162861373660       -1.55350670548458
H           -2.39008574897199        1.15757315542590       -1.63540982718540
H           -5.97338790867278        0.58726481695713       -2.55809495730670
H           -8.29310918133101       -0.18262593341166       -2.76404739931992
H           -9.22229842231645       -1.76029079429113       -1.11841951615050
H           -7.82885309671887       -2.56366170590248        0.73213571408198
H           -6.38140330514519       -3.26618841612982        2.47611072308608
H           -4.80371511430776       -4.14736481700882        4.61450991676199
H           -2.60686828428811       -3.90820251888713        5.69557492827040
H           -0.91561502963717       -2.39517940376277        4.71513087527602
H           -1.38675933881171       -1.14998279146182        2.68850467403539
