50
 energy: -9.654221234244 gnorm: 0.000559893149 xtb: 6.5.0 (97a52f5)
C            0.72881802222964       -0.33930889966731        1.38489554154145
C            2.11552411031930       -0.11672229459644        0.76116733551194
C            2.88445916575000       -1.44423379907362        0.74710586470727
C            1.94780843150749        0.43334508578020       -0.66131936354544
O            2.81075123472456        0.85117120185140        1.59295158844804
C            4.07472349713796        1.17460823013711        1.16930117457643
O            4.62273782900469        0.71998512495943        0.17796623885840
C            4.77160709221248        2.14299332180203        2.00763090060929
C            5.99577671279921        2.59908864900044        1.70497223742674
C            6.72392897202530        3.54792141539490        2.49361167449528
C            7.99321350627253        4.06913132727367        2.17658105517074
C            8.36264924175825        4.95957964289649        3.18708804816966
C            9.53476264449259        5.73215040141343        3.35285775957620
C           10.61682474092854        5.73076509343112        2.35239687614861
C           11.95300139132394        5.59538350298240        2.73789239349943
C           12.96143740850461        5.59359090982050        1.80181196107210
C           12.66290559329211        5.72714696163913        0.46072150960938
C           11.34947367580749        5.86267673504679        0.05785932730911
C           10.33729071502510        5.86455560606869        0.98988424334830
C            9.60289943601001        6.50091139751464        4.52379945661008
C           10.58815495728187        7.41086499420104        4.98124562898966
C           10.16009748338253        7.93047978000897        6.18866264807619
C            8.91284977949227        7.36790930094520        6.50264040287197
N            8.60413146576037        6.53306592527140        5.50518590097338
B            7.30306769225824        5.72332565093943        5.42511423932101
F            6.22342771119139        6.59288989360144        5.43947780656431
F            7.25694869941049        4.83073729319137        6.48523984140201
N            7.29909289803362        4.93752466581127        4.10788651139328
C            6.32030437967061        4.12439830079878        3.72732316820553
H            0.14741259040017       -1.05979239951265        0.81176065001664
H            0.17697264124932        0.59803992377950        1.42263665791518
H            0.82764234801529       -0.70774108159368        2.40430427325840
H            2.35247341671903       -2.20125981019220        0.17307160759476
H            3.02139701848891       -1.81323527559382        1.76190147159425
H            3.86978234040994       -1.30815750434508        0.30537919026571
H            1.38180951190516       -0.25581801051911       -1.28602819945869
H            2.91942866917786        0.59497624947057       -1.12388544184238
H            1.42537462867613        1.38775506790978       -0.63913394341326
H            4.26549603602040        2.49136577572097        2.88726067955071
H            6.46306312039990        2.23234164413870        0.80827349312055
H            8.58166996384101        3.80754983307938        1.31558977075468
H           12.18452190830869        5.46887268127501        3.78106905011352
H           13.98652445089990        5.48484187425796        2.11599766571241
H           13.45414397925070        5.72577944707199       -0.27088915303006
H           11.11705035466549        5.97086600526872       -0.98882726632014
H            9.31595562782341        5.99449269752790        0.67683281038775
H           11.49679249708785        7.66900956148184        4.46509284361371
H           10.68991371517565        8.65553415990479        6.78562612122186
H            8.29415134976791        7.56031014169308        7.36383398941668
H            5.41750534409869        3.94223360073986        4.28382175859437
