27
 energy: -5.694621643531 gnorm: 0.000664102165 xtb: 6.5.0 (97a52f5)
Cl          -1.97353941125249        0.37182309581031        0.89496155561883
C           -0.29943050304455        0.20976658376771        0.51017604098440
C            0.13349325937257       -0.85465579499269       -0.26653074631369
C            1.46571254431704       -0.98025969795181       -0.57869412321144
C            2.39822597757876       -0.04566553130148       -0.12065137652330
C            3.80519482878882       -0.16804808730900       -0.44326813162819
N            4.71834128325176        0.65992497701342       -0.00150907166227
C            5.96284522978801        0.31768906025199       -0.45503793828935
S            7.56750025477696        1.02353062897830       -0.21515642946124
C            8.32293066436037       -0.20233012038578       -1.22245215777813
C            9.66228039935268       -0.35349085394581       -1.54956658181034
C           10.04353621260590       -1.39414787300522       -2.36390359159257
C            9.10015437904712       -2.29181334865760       -2.85966712689307
C            7.77136556910094       -2.15613472980280       -2.54349204362183
C            7.37102657661052       -1.10218197657600       -1.71473978614469
C            6.03451530703903       -0.79070474081047       -1.26520843623352
S            4.44040867861777       -1.45604743417920       -1.47381160239155
C            1.94591403339179        1.01843634959412        0.66247377376681
C            0.61332603998626        1.14540297043742        0.97337826010199
H           -0.58728615361063       -1.57371639581950       -0.61663751656984
H            1.80634649025735       -1.80347416527806       -1.18130357321492
H           10.38439479299246        0.34412345984358       -1.16222288090555
H           11.08243472862424       -1.51647348277993       -2.62243489274007
H            9.41789771567755       -3.10028300719077       -3.49719505974031
H            7.03442710170865       -2.84325773755809       -2.92021394026336
H            2.66073296390232        1.73965162690353        1.01769249037749
H            0.26119103675791        1.96554622494503        1.57540488614044
