38
 energy: -8.087444385114 gnorm: 0.000520314946 xtb: 6.5.0 (97a52f5)
Cl          -1.63634418321171       -1.03350190875877       -0.69760967041300
C            0.01641776585615       -0.57286238097367       -0.53020452570202
C            0.96917008181311       -1.51555653390075       -0.16997224029314
C            2.28311290665358       -1.14593962181043       -0.02365111820527
C            2.68722205818682        0.18214589797615       -0.22242707528609
C            4.08476960613918        0.52608139320668       -0.06955129414984
C            4.63425794720435        1.75876064967651        0.11161042890970
C            3.83813819335737        2.98749210037260        0.32038903529592
C            3.92880964946642        4.05494645405715       -0.57124713197094
C            3.17674918002681        5.19262452111489       -0.38385245364656
C            2.32485561074624        5.28985875822277        0.69814403782412
C            2.22984037956661        4.24657753101902        1.59711232725426
C            2.98011971396465        3.10699842894673        1.41372920799654
C            6.08925743251976        1.85140530371306        0.15252244889044
N            6.74891882542948        2.97814961769093        0.37627847460407
C            8.05908789260536        2.64084551481829        0.33560582868664
C            9.21023742406369        3.42785953795758        0.50187731701111
C           10.43630656981369        2.82985336256932        0.40870026562509
C           10.55638836917885        1.45507591452802        0.15154428545529
C            9.45279499203706        0.66507953545433       -0.01507553370766
C            8.18113116590777        1.24816105498262        0.07450315655352
O            6.90917225449929        0.75586675676293       -0.03930843074689
C            1.71076404857342        1.11298424791070       -0.60375613857089
C            0.39785234077968        0.74277545176316       -0.75196672087249
H            0.65998816470657       -2.53410112220529       -0.00782424255359
H            3.01922379297365       -1.87920384119256        0.25758996116897
H            4.77797030470459       -0.29654228942548       -0.10988691403029
H            4.59521174128916        3.97450471514851       -1.41255588270839
H            3.25392710819446        6.00916457705678       -1.08289199381072
H            1.73559222321698        6.18059160159225        0.84225802735568
H            1.56622077345767        4.32348430459081        2.44276665539332
H            2.90757472324843        2.28981851282508        2.11049840669810
H            9.10934765749905        4.47998804534224        0.69905087754342
H           11.32742097756411        3.42227843042630        0.53487370352970
H           11.53802369546625        1.01575872878425        0.08426640554840
H            9.53738970814210       -0.38813776359566       -0.21336428447002
H            1.99899408981005        2.12914093599405       -0.79949621488922
H           -0.34998518544883        1.46145357735892       -1.04122898531750
