49
 energy: -10.827016489370 gnorm: 0.000655804972 xtb: 6.5.0 (97a52f5)
Cl          -2.14121839352950        0.30683195906488        1.31693738047465
C           -0.45815653748321        0.32630171689770        0.94049001927548
C            0.02547033380605       -0.42077117775837       -0.12328901264228
C            1.36623763703671       -0.40520381362294       -0.42215779748868
C            2.26552111852408        0.35389326113712        0.33685633904948
C            3.67640798898846        0.34157184579084       -0.00515229225324
C            4.66332322160575        0.85679829724833        0.74802700016167
C            6.07549612549045        0.84451882773662        0.40864860324601
C            7.01770908569555        1.21922543088121        1.37112427442840
C            8.36182579001411        1.21102043563945        1.09019304018260
C            8.82448268662154        0.83464717531491       -0.16958142915514
C           10.24728068785043        0.81156698948281       -0.48460481884465
N           10.73290084107263        0.58468138364145       -1.70427828480485
C           12.07687646990235        0.62911414946585       -1.58314296671846
C           13.09712264346633        0.45745325743995       -2.58746814025098
C           12.77667713298764        0.21968956447851       -3.91564002302948
C           13.79636439362953        0.07084102991860       -4.80908273873961
C           15.09791017592721        0.15959111482776       -4.35481522695100
N           15.44947830986699        0.38145858351717       -3.10627916122510
C           14.45688774536558        0.53614699389929       -2.21227824354566
C           14.82008113276699        0.79485539846643       -0.81796858365951
N           16.12629847029375        0.85951999033359       -0.50487153307924
C           16.42593286809926        1.09179548790744        0.75500785244904
C           15.50550552546854        1.27490776852690        1.76892224992323
C           14.17630451027111        1.21494079223159        1.47019363585201
C           13.80953773858232        0.96959335224704        0.15402384019679
C           12.43404648165518        0.88430540290604       -0.25174996944478
N           11.26410341320625        1.00316471286973        0.44223507941728
C            7.88848906706126        0.47287913429531       -1.13632148200464
C            6.54390734970494        0.47490584216092       -0.85578798734543
C            1.75708640724252        1.10539983551642        1.40375205977219
C            0.41526900805646        1.09059215869783        1.70000685946186
H           -0.66471692725292       -1.00855351813076       -0.70431855608866
H            1.73970020135484       -0.98866717109637       -1.24598799708016
H            3.93582231474853       -0.14754163765443       -0.92586605703192
H            4.40957158610022        1.29318698530557        1.69633518524616
H            6.67633784561942        1.51148362779122        2.34934455704294
H            9.06935345633662        1.50215572603592        1.84540247021326
H           11.74575271387489        0.15954859700097       -4.21806294228660
H           13.59008532838981       -0.11301798881122       -5.85066581223792
H           15.90531850061755        0.04035764072042       -5.06135810847327
H           17.47801019730811        1.13808606734615        0.99232501643342
H           15.83234484133019        1.46120271089832        2.77874750918032
H           13.42422945924683        1.35077779341199        2.22724988700966
H           11.17058897897959        1.18023175568575        1.44156100704718
H            8.24033020160442        0.18744785127249       -2.11218753443966
H            5.84395462404604        0.20058942461297       -1.62434824535047
H            2.42018953957803        1.71423194334196        1.99141771964670
H            0.02347770886375        1.66989329111499        2.51876335844844
