24
 energy: -4.982133804399 gnorm: 0.000526769144 xtb: 6.5.0 (97a52f5)
Cl          -2.09214225489830       -0.07435123677332        0.05631859406595
C           -0.37016424475545       -0.01669131533470        0.01149008120091
C            0.35726740451776       -1.16618162525396       -0.25700484856668
C            1.72947556991590       -1.11870404445658       -0.29497279186934
C            2.41659897532660        0.07906741729814       -0.06349172723819
C            3.86601885904582        0.08877095547306       -0.11538153803189
C            4.64793377190140        1.14352725512212        0.17443588847580
C            6.09629384052625        1.16684717459229        0.12211041116183
C            6.83374532935696        0.09620954509796       -0.36223963566287
C            8.19343329074749        0.20572095413014       -0.37735318548210
N            8.82876135632882        1.27814100572258        0.04859075131567
C            8.03280900048185        2.23131124297400        0.48377977225672
N            6.71974808276711        2.26572732978608        0.55380571683407
C            1.66389616062135        1.22935039125428        0.20417575804028
C            0.29113938734203        1.18041017681137        0.24109539565639
H           -0.16970419494345       -2.08849616687931       -0.43349855351717
H            2.29180523624351       -2.01265442004945       -0.50296115719533
H            4.33425289843384       -0.83546404554678       -0.39921210819058
H            4.18679460947393        2.05935048680333        0.49195513377382
H            6.35224911733582       -0.79300919633174       -0.72658360931515
H            8.79799911132327       -0.60872849524257       -0.75067373569890
H            8.53490623372167        3.12258713880732        0.83678161669426
H            2.16102487815862        2.16704534956795        0.37448791469064
H           -0.28844241897202        2.06493412242688        0.44464585660322
