30
 energy: -6.363692780897 gnorm: 0.000542353661 xtb: 6.5.0 (97a52f5)
Cl          -2.07701578823622        0.02654659476679       -0.04811740337342
C           -0.35349500759826        0.04310702368792       -0.06367344350728
C            0.34875630649143       -1.07484801645327       -0.48866062451385
C            1.72215616500028       -1.06179612521755       -0.49851689568009
C            2.43586724507892        0.06863114194169       -0.08186153457401
C            3.88556100353214        0.04084725966814       -0.10136611327209
C            4.68511737649738        1.02810666332828        0.33875653271572
C            6.13527913633047        1.02352995077399        0.33560216929884
C            6.85963329850775       -0.04690487445114       -0.22949277150134
N            8.15063667586880       -0.13987465006497       -0.27209769495577
C            8.79482467608824        0.90980058113598        0.29122754812577
C           10.20321885352699        0.92395232507242        0.31999630893898
C           10.88925582981483        1.95908142689669        0.88481755569757
C           10.19990543050387        3.03256806219009        1.44724572586048
C            8.83680746676233        3.05331428319792        1.43529729231804
C            8.09316658347428        2.00062614740654        0.86200900296909
N            6.74418252795985        2.05979444461761        0.87928176070045
C            1.70879128035980        1.18840111546560        0.34128830971842
C            0.33492237307379        1.17412720260490        0.34978807151059
H           -0.19842077052817       -1.94600132227448       -0.80681565760792
H            2.26420727308277       -1.93162613579769       -0.82750443529961
H            4.33339803685965       -0.85452819597198       -0.49014693635224
H            4.23630200065541        1.91168751926631        0.75099849176136
H            6.31734726942018       -0.86298466501180       -0.67571052035499
H           10.72964598956162        0.09287038287210       -0.11528526810364
H           11.96669480983759        1.94925758066229        0.89808350381062
H           10.74822124055783        3.84667154262423        1.89218501273311
H            8.29965569802564        3.87909111125467        1.86748522477148
H            2.22622750169358        2.07474737720957        0.66042856973303
H           -0.22452048220117        2.03456424859848        0.67561821843250
