47
 energy: -9.837336438286 gnorm: 0.000662788597 xtb: 6.5.0 (97a52f5)
Cl          -2.00468837097419       -0.51301657168387       -0.63950228510416
C           -0.29325730960904       -0.30656286058922       -0.54552648297875
C            0.55324312679293       -1.26378757287970       -1.08406383774502
C            1.91552499612111       -1.10029688018566       -1.00694837183383
C            2.47158934108577        0.02529734826577       -0.38782588407311
C            3.91277026738493        0.15951176881143       -0.31638524383378
C            4.58077618674912        1.16400452728197        0.27254847651353
C            6.01879556910622        1.22071537629671        0.28995849577269
N            6.80659338128227        0.37720258193476       -0.40910917062198
C            8.05970290489460        0.77882478329539       -0.21935569242987
C            9.22097816929578        0.12927414419667       -0.81896972826742
C           10.51955696313398        0.54699791318473       -0.53418853650965
C           11.60111142877986       -0.08283117858933       -1.10898640835269
C           11.40767397376258       -1.13872205745665       -1.97759733341172
C           10.12730838305988       -1.56457346202668       -2.27117602113267
C            9.04439149563992       -0.93742748154384       -1.69697913299580
N            8.10921686246080        1.88957103701201        0.60391157765387
C            6.82383316055802        2.18057168653201        0.96028649298943
C            6.44409090903289        3.24224432434944        1.85738043085715
C            5.32348171560466        3.25327142777764        2.60494454011195
C            4.91934140693870        4.31455365503012        3.50298767267367
C            5.62986800392742        5.51641073596568        3.61623880812897
C            5.21121945094169        6.50368798015214        4.47563644556793
C            4.07224193053851        6.32143614912687        5.24597586100033
Cl           3.55041744112649        7.56228554964778        6.32615140927608
C            3.35393649811285        5.13928292763057        5.14598073697800
C            3.77031937384295        4.15123950079219        4.28709238767398
C            1.60083914425436        0.98156328559084        0.14869534931143
C            0.23855270621780        0.81643658032726        0.07026273091583
H            0.12624632867549       -2.13105687977668       -1.55839627929691
H            2.57031391286244       -1.84578355327024       -1.42426670856957
H            4.49655563195573       -0.62089274050256       -0.77020322179054
H            4.03697697602830        1.97651054482224        0.71201673898357
H           10.67447224487359        1.36655659991253        0.14413318031433
H           12.60067872658313        0.24838487217553       -0.87909092449815
H           12.25540889128308       -1.63039608685918       -2.42593569683150
H            9.97539001249791       -2.38741433590908       -2.95031562012689
H            8.04368367088118       -1.26266921856887       -1.92229331608159
H            8.94019731690997        2.38404021539772        0.92587979849778
H            7.14610817965598        4.04860631592838        1.96016140194147
H            4.68835200972699        2.38714283295799        2.57896950253570
H            6.50955388405556        5.67574821194861        3.01935118583552
H            5.75645870522338        7.42811975634639        4.56272079763287
H            2.47091442441127        5.01215724203574        5.74887022886915
H            3.21043048398710        3.23503526098728        4.21091627641642
H            1.99853001168573        1.85768497566415        0.62816293853194
H           -0.43151052136897        1.55131076845780        0.48309243150603
