28
 energy: -5.909876129773 gnorm: 0.000538760827 xtb: 6.5.0 (97a52f5)
Cl          -2.05537714513489       -0.20814920944809       -0.02841553106928
C           -0.33530385411858       -0.08227097498287       -0.04250848250017
C            0.43793995568527       -1.17077920138907       -0.41622656837810
C            1.80792710091633       -1.07120757551186       -0.42439904371598
C            2.44569455843053        0.11945268235387       -0.05681406488229
C            3.89298057314924        0.18604461343279       -0.07078281820229
C            4.63525995451486        1.23699106670624        0.30711491745578
C            6.07308192234118        1.20263721813491        0.26145745560058
N            6.83765625825073        2.21522369087190        0.64437786899610
C            8.10981137516992        1.79550883091505        0.45265863511522
C            9.33209270469863        2.44729050498704        0.68444851317685
C           10.49532157039274        1.78595603767868        0.40389399593811
C           10.48277833317455        0.47931919143522       -0.10895901225625
C            9.30787606025258       -0.17847947682109       -0.34612151634549
C            8.09766454617452        0.47200239667868       -0.06787228249609
O            6.78466078434433        0.10594817681117       -0.18459507835773
C            1.64780249335273        1.20812419382199        0.31500790207453
C            0.27745843190205        1.10726994593012        0.32129368718544
H           -0.05188827757372       -2.08759619318701       -0.69731445806053
H            2.40613653951885       -1.91810403936969       -0.71349981437294
H            4.41830231104669       -0.68959248805131       -0.41018188231718
H            4.17319731557028        2.13621069087233        0.66551031542324
H            9.33316101624630        3.44762506517371        1.07867438421290
H           11.43966421630167        2.27405087555079        0.58001745563757
H           11.41811148290220       -0.01282029703890       -0.31896672264595
H            9.29011650238957       -1.17926494126421       -0.73834861223351
H            2.10921260893595        2.13727262585959        0.59675284144057
H           -0.33695933883532        1.94407658985015        0.60744791557681
