39
 energy: -7.145184646560 gnorm: 0.000988392118 xtb: 6.5.0 (97a52f5)
Cl          -3.70995811152870       -1.28922172568657        0.41848750324856
C           -1.99770182015187       -1.25667979137554        0.68817756109357
C           -1.18503358978297       -2.21080414114158        0.09925469473897
C            0.17499823060229       -2.18142445706189        0.30798792966360
C            0.75417452326068       -1.19568098047311        1.10761840127492
N            2.12497286059900       -1.19852509166734        1.29145091005953
C            2.92433932232843       -0.14432730335944        1.64491219401929
S            2.33768125189353        1.43270056054814        2.12927624501869
C            3.94302473190488        2.08213071204369        2.34197763270217
C            4.34529207084108        3.34995078783998        2.73224899154614
C            5.68993746301551        3.62798522268202        2.82911129199535
C            6.63935770949526        2.64995824410563        2.53740890616473
C            6.25257773326255        1.39187627667727        2.15074781354292
C            4.88454362969154        1.08721379091795        2.04861156096883
C            4.29167350252594       -0.17130429918334        1.65567664857174
S            5.24634076551917       -1.62918359977478        1.22082610630698
C            6.20833320997492       -0.91415557918183       -0.09158286772816
S            7.86173533870639       -1.10011067926800       -0.21875697246296
C            8.93664634374313        0.24188467088813       -0.53752682419063
C            9.45437024716258       -0.10047441120671       -1.84110597967361
C            9.25707736911536        0.41329575766474       -3.07262579419524
C            8.16619006926213        0.91550128224294       -3.63145197965329
C            6.91760432633494        0.87629440470653       -3.17124657569596
C            6.62879696955848        0.23804975162441       -2.06032835090452
C            5.72982791759148       -0.15877717561038       -1.13956721914853
C           -0.08158911078859       -0.24499232566262        1.69659805139804
C           -1.44042151731373       -0.27508990736761        1.49014505182623
H           -1.63304733063913       -2.97020416005033       -0.51858452485254
H            0.81391603993579       -2.91828364916562       -0.14614407197408
H            3.60359142016287        4.09784004070981        2.95284486485428
H            6.01230237730125        4.61091760872708        3.13077211159476
H            7.68781528466547        2.88666804045822        2.61307241947256
H            6.98074656381244        0.64101784777792        1.90371190635047
H           12.81532791985325       -3.80435725082833       -7.33260031989498
H            3.63896188667968       -5.64375238761546      -10.29300436618842
H           -1.80724718425565       -2.77553884962787       -4.64020988749779
H           -3.26835778902986        0.65961687211309       -1.40501936838693
H            0.34129697646096        0.50945504918531        2.33092474598529
H           -2.08597753745770        0.45578150539445        1.94666184685377
