39
 energy: -8.500509813227 gnorm: 0.000667931447 xtb: 6.5.0 (97a52f5)
Cl           2.34299921611801       -2.10791790748613        0.94194520182593
C            3.59537472109711       -1.05904836821953        1.47829658381994
C            4.01697509687480        0.01376063207918        0.67239276048438
C            5.00065683905812        0.84510573096005        1.10137401735553
C            5.63355950850987        0.66194443652739        2.36120048318757
N            6.58220161259424        1.52790300142130        2.72959778343939
C            7.17388377958828        1.33995271512230        3.93719893766605
C            8.17435196416212        2.22628277835374        4.33029541117048
C            8.84959593461371        2.09550026638546        5.54274944940140
C            9.87299846394029        2.99569322616767        5.93931603265143
C           10.51673077551604        2.83474940976559        7.12495024943572
C           10.18170148784612        1.77179810680935        7.98395607612965
C            9.20877282801103        0.88734281164842        7.64257923097242
C            8.51021529190234        1.01925124764273        6.41314960102361
C            7.50845154517868        0.13163970158141        6.03163435204570
C            6.82473180170670        0.26687770406082        4.82249071561225
C            5.81463959518137       -0.64770011710890        4.42930755104001
C            5.40936482109659       -1.77670913216390        5.29988400735092
C            5.52036170877508       -3.10069224370484        4.86021965344226
C            5.14012190680619       -4.14683005291522        5.66839814768862
C            4.64054302974608       -3.90127389838859        6.93247737858803
C            4.52243418415747       -2.60237590200653        7.38720439748918
C            4.90097173128321       -1.55153047133446        6.58419399547178
C            5.21248378632373       -0.44010851361971        3.17117931953319
C            4.18133097332351       -1.27452618660513        2.69694572227925
H            3.54279397672243        0.16208310597804       -0.28270671663918
H            5.32076858924700        1.66993653490981        0.48959536599583
H            8.43288366675837        3.03171761576641        3.66835619860409
H           10.13404794092769        3.80829458158595        5.28377906996154
H           11.29280904756298        3.52461618796938        7.41317499424061
H           10.70457531450946        1.66151416615190        8.91977841766814
H            8.95470920915528        0.07493564606099        8.30112590911424
H            7.26543170903241       -0.68449981326371        6.68563478412755
H            5.92256467190026       -3.29121824454910        3.88005803136266
H            5.23419138231357       -5.16069574999715        5.31514855847016
H            4.34336646368454       -4.72273908938893        7.56354651459659
H            4.12976193542982       -2.41179760171561        8.37263716336829
H            4.79546609228458       -0.53819783205490        6.93170262568579
H            3.83291739706100       -2.09389848242738        3.29804202433931
