39
 energy: -8.252533244206 gnorm: 0.000921873524 xtb: 6.5.0 (97a52f5)
Cl          -2.15213509275621        1.08956565705830       -1.37094743744253
C           -0.64421615083585        0.94777841696784       -0.54266725944816
C            0.02659585062728       -0.25537103184936       -0.51339185262898
C            1.23725108223065       -0.35835512462095        0.14899450392003
C            1.77592671002500        0.74398769015041        0.78221996074481
C            1.11183242444211        1.95425243593784        0.75841392383873
C           -0.10737578107134        2.07701503254855        0.09738383895378
N           -0.81553973615971        3.32765869717650        0.06259962238293
C           -0.64733654445749        4.21208284158974       -1.07585514265547
C           -1.30393532416454        5.39813172246241       -1.19100705219629
S           -0.90090201568864        6.23794541296401       -2.66990979836456
C            0.20746873271673        4.98821717610493       -3.16244987701806
C            0.98428108692902        4.94010289938457       -4.31088831068947
C            1.80607260104616        3.85890467994934       -4.52144170397251
C            1.85653055499801        2.82627366602255       -3.58943451175131
C            1.09092962333744        2.87070417959580       -2.45186955064731
C            0.23963594317599        3.96341055142911       -2.21079040145660
S           -2.43712861796824        6.09731853811508       -0.04291464730785
C           -2.56073394767235        4.74908241682333        1.07864286865990
S           -3.70416131979131        4.79042868306276        2.39933863347830
C           -3.20055624813927        3.22702971912594        2.97890599182575
C           -3.67856924049039        2.52987844239369        4.07905833111837
C           -3.14523896594676        1.29930069738274        4.37872141943900
C           -2.13809423755728        0.76113146708473        3.58319728741834
C           -1.66449413312389        1.44608626590136        2.49300395584482
C           -2.19003266287111        2.70764860831092        2.16310619998053
C           -1.83342066075784        3.59942130275090        1.06131704400648
H           -0.40330404208099       -1.10640121622159       -1.01320655960565
H            1.75972571048141       -1.30045616897947        0.17014079280957
H            2.71821227674715        0.65999649136028        1.29792240022243
H            1.52441684223004        2.81757276714305        1.24982062343469
H            0.93363096177905        5.74870538027021       -5.01962602065567
H            2.41348163616862        3.80954831898782       -5.41013615908957
H            2.50307942415077        1.98205598594616       -3.76504858041947
H            1.14553223196988        2.06550863474646       -1.74679659534626
H           -4.45741990903988        2.96220464955086        4.68309340328042
H           -3.50731808882182        0.74846234082261        5.23114144464349
H           -1.72691118508478       -0.20495289473036        3.82642913575597
H           -0.88926978858014        1.01312466728284        1.89329007893800
