39
 energy: -6.579939045434 gnorm: 0.000801003134 xtb: 6.5.0 (97a52f5)
Cl          -1.06963935428471        0.69565716763260        0.93671002905455
C            0.36182540679775        0.02315459955758        0.26172134331746
C            0.28479568805749       -1.13587482986577       -0.48053517408351
C            1.42399960797017       -1.67217817642464       -1.05345253385138
C            2.64158471318947       -1.04689936492682       -0.87768696050673
C            2.72632699270833        0.11334951772980       -0.13328885861545
C            1.59321329276484        0.67476387638084        0.44881935455546
N            1.70818946348044        1.84508663313835        1.15804385067743
C            0.67066548597648        2.59758816644027        1.69416498756866
S            0.03977721525295        2.26881002057960        3.18819425116096
C           -0.82987510777796        3.47217965372080        4.08286041049695
C           -2.12269974326945        2.84455742425121        4.07045557315632
C           -2.92174755284017        2.48043193134719        3.05557448066870
C           -2.94813753119217        2.93112874678535        1.81556995186053
C           -2.29393446464992        3.90907338990389        1.15818604806236
C           -1.04868787146157        4.35800764719882        0.88535048057962
C            0.16974616294479        3.74800688927722        1.07349702208210
S           -3.66437438092575        5.59597215783052       -4.10610815472021
C           -2.74251746592544        4.39641688984389       -3.24061780400479
C           -3.12558926046099        2.98183249951219       -3.11595869196998
S           -1.83147033134614        2.38621682746606       -2.10006364477041
C           -0.13902774380894        2.22580100024219       -2.21763676387970
C            0.91930611642601        3.12865299048077       -2.25399681865972
C            1.10003231060709        4.49888225522805       -2.27962285526408
C            0.48828668884662        5.66335433220279       -2.41564182514523
C           -0.80910894018899        5.83763775661014       -2.63537549544344
C           -1.56846747822792        4.67524373841704       -2.63223809405689
H           -0.67306082950178       -1.61094942321227       -0.60887073150875
H            1.35991796789253       -2.57720435981162       -1.63467036987863
H            3.52947829739737       -1.46480261437598       -1.32272724291104
H            3.67290739863308        0.60630115637656        0.00241621326719
H            1.20277540935111       -2.57311486172795        8.87888417089878
H           -6.59566754389919       -1.81346367294851        9.54901380992745
H           -9.97453096485417        7.45377338014170        3.74765308088478
H           -1.01030646335116        5.26832629810790        0.30867229585865
H            0.15526101949491        1.19043666919615       -2.15196427317651
H            1.88134852404376        2.62936559785555       -2.23109454005794
H            2.66220640862278       13.48803438037660       -7.19731444389288
H           -5.21843114449046        8.00105372391803       -2.81848207667054
