39
 energy: -7.370407685775 gnorm: 0.000985423495 xtb: 6.5.0 (97a52f5)
Cl          -0.48069910078904       -0.35563208216164       -0.85604605579161
C            1.08100321554541       -0.09590068814861       -0.16190081552128
C            1.97861758545648       -1.14178809047856       -0.11856887497526
C            3.27480772385241       -0.93484838313344        0.31927823767996
C            3.67537707032012        0.32615211718739        0.71061303925264
C            2.78066476192057        1.37561171201942        0.67891400959136
C            1.46629642354191        1.18810469300212        0.26340790692537
N            0.55010121233117        2.29700248408727        0.26313632753197
C           -0.59915200093157        2.34592642526484        1.12791219367708
S           -1.80836495581270        1.21163752464635        1.05747936045809
C           -3.25312041696244        1.38457875760898        2.00517304474413
C           -4.14785053679324        1.74211892840913        0.93881809939315
C           -4.03758266364328        2.64782471092321       -0.04991090203962
C           -3.42756931971493        3.82090811398093       -0.05729786433204
C           -2.83869576764577        4.56848962535772        0.89797961620578
C           -1.85595896910875        4.45560575462980        1.81696694928171
C           -0.90050634385524        3.47121074204149        1.91156054498063
S            2.49709471427107        4.77784525708303        1.00505712595197
C            1.50764828877013        4.52322807376536       -0.38467323548674
S            1.34823074146094        5.69991422861250       -1.67674185849214
C            0.22032858741997        4.70305864467689       -2.56877411082837
C           -0.43192680645688        4.94993426862928       -3.76831673652858
C           -1.27967232674378        3.99440722766629       -4.28132386768534
C           -1.47832334451703        2.78733805025937       -3.61236111934515
C           -0.83778898077036        2.53477801402443       -2.42684798539750
C            0.01629231000902        3.50409601312283       -1.88593695616296
C            0.74497153238891        3.42000080970179       -0.63694356714739
H            1.65849044565291       -2.11647638176434       -0.44590143677975
H            3.97212496235139       -1.75582652930837        0.34589915054191
H            4.68670487023028        0.49178513286580        1.04350330052215
H            3.08246718222115        2.36220892525875        0.97971912126919
H           -2.10293758911918       -4.91037747557701        3.97323208364022
H           -6.92822969684009       -0.34056172632731        9.23066637701717
H           -5.84973360384920        7.99069501119461        7.31233128886631
H           -1.74710185588501        5.28228580769084        2.50016650713113
H           -0.26793455265285        5.88213001489768       -4.28037707843701
H           -1.78993747433375        4.17729667948138       -5.21242399511726
H           -2.13557749580835        2.04473569213718       -4.03364893498132
H           -0.94841782426685        1.59409191844856       -1.91705888921578
