47
 energy: -9.255435957392 gnorm: 0.000742273625 xtb: 6.5.0 (97a52f5)
C            1.36380026386372       -0.28505664522765        0.77512745713964
C            2.73747535619301       -0.22308113445317        0.08793719708059
C            2.54769560248932        0.04013021854316       -1.41272508553869
C            3.58662098850213        0.87967947471382        0.73563178249639
O            3.37300714303923       -1.51190265846390        0.28793080680261
C            4.61422717634290       -1.62077692459786       -0.26605894602634
O            5.18779114109375       -0.76569533441099       -0.89819056570918
C            5.29888868670267       -2.94047878423312       -0.03069772611208
O            6.24328235991592       -2.83654476033691        1.02055040641029
C            6.92223410590928       -4.01524159788112        1.31450221577284
C            6.71114094313097       -5.24849246695799        0.67335056967383
C            7.40835171295595       -6.36116467856076        1.04738336115660
C            8.34245927727436       -6.33142797665632        2.09588038193829
C            8.63233656824784       -5.08045030737662        2.67732991972528
C            7.89555653405804       -3.96216971587720        2.30129727377458
O            9.64888969737343       -4.91348983826834        3.59560474885952
C           10.50239992870606       -5.96114644849403        3.86541158551968
O           11.45475434584746       -5.78488661542150        4.60847808732694
C           10.23803700443652       -7.28257523969237        3.28406792796840
C           11.18183679149138       -8.39042028164515        3.47439987156170
O           12.23952867737079       -8.21641417956199        4.05851099636327
O           10.88707197119306       -9.63461625095910        2.95814037198270
C            9.64048020241377       -9.87163846282662        2.41528759447714
C            9.30617891815517      -11.18725672179477        2.07504473142887
C            8.04949089169768      -11.50185877060355        1.63567794036495
C            7.08335108849746      -10.51267464430105        1.54605021426837
C            7.39725897227361       -9.21271407537862        1.84966709479935
C            8.69506585685446       -8.84591837868659        2.22999626208209
C            9.09221844527614       -7.48400315735779        2.53935889338089
H            0.82166293319952        0.65327573946173        0.66741087284787
H            1.48306997948282       -0.49675153960260        1.83615611002203
H            0.76268504538724       -1.08328821086961        0.34349223996692
H            2.02944636823580        0.98192653428706       -1.58647536340928
H            1.96899506228488       -0.76187813216204       -1.86737043298462
H            3.51264751667406        0.08094734859469       -1.91518001595581
H            3.11204131564920        1.85488204795791        0.63766889028090
H            4.56786934142556        0.92518378250948        0.26611329709852
H            3.73415767812520        0.67053366639525        1.79358581960103
H            5.82470851772149       -3.25095204562756       -0.93877444495207
H            4.55607902268641       -3.69527015783492        0.24496638983910
H            6.00222337579393       -5.31749939328320       -0.13130631323523
H            7.29042229813390       -7.26255694723079        0.47234748357585
H            8.10415417821404       -3.02124570135612        2.77447978105558
H           10.05594500361305      -11.94983977460337        2.19392748972388
H            7.80276613274068      -12.52138944367058        1.38715034671014
H            6.07982677171900      -10.76932913952610        1.24764396345505
H            6.61235880761681       -8.47763227666990        1.86491851738945
