20
 energy: -4.391902378692 gnorm: 0.000363715323 xtb: 6.5.0 (97a52f5)
Cl           1.05810544208285       -0.04995455225205        0.03542742813327
C            2.78865483878132       -0.13269470482604        0.03344276713423
C            3.54797933993566        1.05348292909668        0.03253893806317
N            4.85232553971874        1.13441280991076        0.03096398097352
C            5.49939994242128       -0.06420803234409        0.03013546311923
N            6.82753796746732       -0.25540498394717        0.02831187715601
N            7.00983338465815       -1.57348226755206        0.02801591761119
C            8.20963379116387       -2.28670833400984        0.02629465917389
C            8.19716451571666       -3.64022106747283        0.02624860156702
C            6.98112598943882       -4.35615855991697        0.02789782066071
C            5.79040157756145       -3.69500062579659        0.02956865191580
C            5.81154286179556       -2.29626606034193        0.02964256440311
C            4.81320119599154       -1.31121764494759        0.03099984288762
C            3.41422005513114       -1.34392908149892        0.03269867714207
H            3.00796802364699        1.98756432665376        0.03319046726266
H            9.12763567500118       -1.72843853484823        0.02505233453734
H            9.12779997527599       -4.18329428512071        0.02493185005852
H            6.99841483125878       -5.43355077845400        0.02780225396616
H            4.85190639948800       -4.22050824122742        0.03080591975166
H            2.86320865346472       -2.26659231110475        0.03331998448283
