41
 energy: -9.152424855212 gnorm: 0.000922595547 xtb: 6.5.0 (97a52f5)
Cl          -0.98034421806867        0.19252258430148        3.41477516508575
C           -0.16349123600010        0.60845330998981        1.91980836222839
N            0.90951521077473       -0.09315343568842        1.59823049026633
C            1.47976066051856        0.27337394470633        0.46285599173902
Cl           2.91301038408966       -0.60750805502388       -0.03292792295544
N            1.06493803296381        1.24492434170558       -0.32785332945430
C           -0.02024846516330        1.88066383341488        0.09617090989763
N           -0.48338196419036        2.91926556108234       -0.72958169723120
C           -1.55741417199937        3.78377887235063       -0.56607866340789
C           -2.35352091598028        3.70337832449889        0.56561232628758
C           -3.41808843086179        4.54587225847164        0.77317190551527
C           -3.76061731664893        5.53274130304136       -0.14880679380382
C           -4.88905263697769        6.42477488934321        0.06910545432969
C           -5.68854747271521        6.34641739659127        1.20386636036971
C           -6.76176733980485        7.20325603803798        1.40209358547545
C           -7.06659947146974        8.15914349526505        0.47606592334455
C           -6.29543500148813        8.28974154684070       -0.69490907868691
C           -6.59658077735795        9.27121883143610       -1.65894333188683
C           -5.83931606216208        9.38520876308289       -2.78860056389805
C           -4.76232323612638        8.53635873012773       -3.00430885063407
C           -4.41567920054757        7.54888694745420       -2.09123023581823
C           -3.28596305161744        6.64985091321658       -2.30784137320934
C           -2.49705605446166        6.73180485372001       -3.44681769114089
C           -1.42906628943430        5.87641747064100       -3.64983404854558
C           -1.11970525817368        4.91966450807245       -2.72302002369487
C           -1.87239388854034        4.78125786651951       -1.54684929166333
C           -2.97573856127875        5.65609139235861       -1.33287502284763
C           -5.19558463808060        7.41751279902935       -0.90724568637322
N           -0.67340315031001        1.59826832057329        1.21398410379817
H            0.08892789565413        3.03238087152290       -1.55939289856512
H           -2.12154801027554        2.95444884361532        1.29771044633275
H           -3.99274147672228        4.42997915956071        1.67322533604189
H           -5.48244348398186        5.60822187579232        1.95637368226667
H           -7.35937725531711        7.11357921561248        2.29458682042512
H           -7.89962983010249        8.82236880341950        0.63314962797481
H           -7.43188679039143        9.92977999955303       -1.49462447245161
H           -6.07876789133759       10.14032373782822       -3.51947488528308
H           -4.19137938033580        8.65901828765019       -3.90576060740250
H           -2.70927338933243        7.46978442980368       -4.19783384281368
H           -0.83761159352298        5.96599306802228       -4.54662976838013
H           -0.28720427322170        4.26895410244042       -2.91265641121975
