35
 energy: -7.759902188736 gnorm: 0.000916698255 xtb: 6.5.0 (97a52f5)
Cl          -1.51016564672125       -0.49176657139641        2.69840248629316
C           -0.48259262980026        0.22792696683582        1.47257629123558
N            0.67478560559630       -0.36080131206657        1.22792078037031
C            1.39736208745478        0.22837823834946        0.29060256278939
Cl           2.94904499821458       -0.49320275137481       -0.09374361018587
N            1.05333948782944        1.31060148119638       -0.38033778404394
C           -0.12857308745484        1.81480031032001       -0.04954780681332
N           -0.52188028171393        2.96634622123279       -0.75433313659423
C           -1.66407142959922        3.74915644647060       -0.62649783303749
C           -2.62451257460043        3.43792940872948        0.34151115477362
C           -3.75096817758212        4.18993852712804        0.52332298806163
C           -3.99017689555628        5.32088102324871       -0.26796829059535
C           -5.15128139542442        6.12550838674115       -0.09918081414975
C           -5.37064298348996        7.21566848615758       -0.87297486527510
C           -4.44453986055338        7.59572189420390       -1.88719478136000
C           -4.64540015715215        8.71714122577920       -2.69695442995177
C           -3.73031664509647        9.05786202759089       -3.67053277740055
C           -2.59663369399233        8.29912038781883       -3.86759005329285
C           -2.34835093454412        7.16806380571179       -3.08397399904544
C           -1.19115060294953        6.35915167121507       -3.25920198837077
C           -0.96957963885519        5.27017110397880       -2.48254172626625
C           -1.87759233081933        4.88392440958134       -1.45754680664297
C           -3.04563168692448        5.66623623094378       -1.26615430366011
C           -3.28006813233750        6.81142205153415       -2.08013824456763
N           -0.93508762135870        1.30990468087465        0.87167852905596
H            0.16870964860561        3.25276158303086       -1.43988264834837
H           -2.45809670135418        2.57700997889265        0.95907284422853
H           -4.46648735712439        3.92065474423839        1.28093105378349
H           -5.86094689193577        5.85221649148866        0.66233447516816
H           -6.25424218364671        7.81312327952499       -0.72983021893387
H           -5.52762420435702        9.31616007834696       -2.55128125685598
H           -3.90325262202397        9.92718090091175       -4.28368063032515
H           -1.88892267697420        8.57258839337365       -4.63098091263096
H           -0.48795618794706        6.62677952146982       -4.02885924865791
H           -0.08652659582058        4.68481067791969       -2.65609499875470
