53
 energy: -11.806499340188 gnorm: 0.000521317329 xtb: 6.5.0 (97a52f5)
Cl           1.85686239117602        0.05181209613224       -1.90688424324325
C            0.24684750867601        0.09261247218149       -1.20518568883288
N           -0.42996979680050       -1.03935188391066       -1.17962648007031
C           -1.64202069315052       -0.94718359052429       -0.64511437018912
N           -2.38782894804905       -2.13908568713364       -0.61681002160424
C           -3.71005311351329       -2.35478402217453       -0.19635111546170
C           -4.26247323389288       -3.63409817516242       -0.26335051419944
C           -5.56152376354929       -3.85974213388739        0.13131764498104
C           -6.33707334890536       -2.81682991535736        0.59990130188136
C           -5.80598904731815       -1.54404293947028        0.67379766366887
C           -4.50818872855840       -1.31839761352027        0.28059957842633
N           -2.17532430375007        0.16177054402478       -0.16010975151361
C           -1.41088579414107        1.23684193179834       -0.26087350376660
N           -1.95311319111409        2.43479051604615        0.25324849180991
C           -1.52201949130836        3.75959387975439        0.10549313079104
C           -1.67956041198238        4.63800327188648        1.17085945476751
C           -1.22491416222929        5.93487696349472        1.11115832991099
C           -0.60022445395588        6.44597843086240       -0.02634607135461
C           -0.09382789573437        7.80824241981285       -0.07852200777060
C           -0.15246371159387        8.66379964620897        1.01677097334048
C            0.33438034592025        9.96150463047296        0.95633179844823
C            0.89212922165732       10.44058213450003       -0.19489855554264
C            0.98397799767799        9.62303180372075       -1.33801751745892
C            1.55651407969966       10.10241266832522       -2.53214499913830
C            1.64109867752299        9.29648499914999       -3.63125868246474
C            1.16563838901456        7.99330230650133       -3.58795433406979
C            0.58958115063967        7.46321823039407       -2.43981046102338
C            0.08846926805935        6.09438080759005       -2.38201032352003
C            0.13228236964837        5.25084606210595       -3.48542843092367
C           -0.36425955644799        3.96051266844545       -3.42938952985913
C           -0.89921849199093        3.47722577334712       -2.26791296745493
C           -0.94939817284496        4.26216056336261       -1.10875199915065
C           -0.47772677746880        5.60254673951430       -1.16864698095330
C            0.49152029365114        8.29207622516780       -1.28556462326826
N           -0.18134534984791        1.25627110598524       -0.75647932759430
H           -1.89205582936316       -2.94165667436433       -0.99151705948992
H           -3.65874281878175       -4.44527921062189       -0.63073622420054
H           -5.97568829605736       -4.85302765114371        0.07344288879868
H           -7.35472708808471       -2.99573068156104        0.90597845257400
H           -6.40900482621779       -0.72907630585901        1.03933955083660
H           -4.09019944028042       -0.33212548036924        0.33419017559628
H           -2.69768949718594        2.27295712664543        0.92703739170743
H           -2.13634448616033        4.27239982116224        2.07393454236476
H           -1.35870937148659        6.56160087331111        1.97329159296415
H           -0.57650503025088        8.32132192319837        1.94231326654788
H            0.27308105116712       10.59542051516002        1.82578935729334
H            1.26920014628791       11.44769807707935       -0.23880424028334
H            1.92650443408107       11.11248626360037       -2.56768852446626
H            2.08056842927053        9.67427480266868       -4.53992117996659
H            1.25340356614717        7.38941715349902       -4.47191437606280
H            0.54808548649410        5.59896382774567       -4.41257090844487
H           -0.32739146559652        3.33322306461418       -4.30515091178245
H           -1.29129421916047        2.47747962559386       -2.23621966157102
