45
 energy: -9.808318620369 gnorm: 0.000329184688 xtb: 6.5.0 (97a52f5)
Cl           2.04684850266318       -0.15699622819427       -0.37112482059877
C            0.30421655463215       -0.07010101282764       -0.16196862599967
N           -0.34474569445961       -1.20659026473493        0.00113272389336
C           -1.65768693106430       -1.07520592461809        0.14823284667411
N           -2.37796278272060       -2.27509146369525        0.29355630520137
C           -3.76450476137711       -2.47590795036246        0.39078588275144
C           -4.27849783463213       -3.77140651353369        0.45140385003783
C           -5.63558031781743       -3.98548978977182        0.53423064055555
C           -6.50799396148199       -2.91466013810882        0.56076836205556
C           -6.01639306278720       -1.62532044800223        0.50407048514513
C           -4.66111152556669       -1.41120845629378        0.41927644261864
N           -2.30977160505540        0.07549606940016        0.15606818068324
C           -1.55341516963259        1.14689208857830       -0.02257214512903
N           -2.22582943396674        2.38245508362638       -0.03308826784699
C           -1.72710586941384        3.65111720229467       -0.35128550459290
C           -2.58325596902584        4.78091910471307       -0.28119556722375
C           -2.14361240828553        6.01953280365794       -0.61674598623774
C           -0.80766506664569        6.22636585114517       -1.05777805021329
C           -0.33302754518802        7.48247631245792       -1.42233850186950
C            0.98032779117679        7.66159032144646       -1.86464305523144
C            1.47608800818962        8.93334261372693       -2.24776132987898
C            2.75772558982119        9.07871468976396       -2.68136196996595
C            3.61661668230780        7.97060800957699       -2.75701287091395
C            3.18255205743977        6.73254593725606       -2.39776937887419
C            1.85393068704117        6.53451254949207       -1.94051905295021
C            1.38044516085772        5.27653485308580       -1.56970964819127
C            0.06749492949393        5.09955416389777       -1.13100716762512
C           -0.42792341604656        3.83310807287728       -0.76336122213631
N           -0.23909966825634        1.13044958867014       -0.18850790014846
H           -1.79714686742721       -3.10715554975922        0.27167258160310
H           -3.59904567079472       -4.60526832703881        0.42799996210993
H           -6.01914353566024       -4.99174534515688        0.57697450107781
H           -7.57014274876133       -3.08506791889192        0.62507249027139
H           -6.69484968091590       -0.78824234722905        0.52526713529699
H           -4.27298347694145       -0.41254892650292        0.37196387616038
H           -3.21862593379266        2.31558899934688        0.16781935343964
H           -3.59782320253438        4.63809192046742        0.04673743358211
H           -2.80618987781658        6.86540461435396       -0.55682329229660
H           -0.99037824384365        8.33081558532504       -1.36722516090627
H            0.82118760344777        9.78547717702277       -2.19235838235367
H            3.12011210660206       10.05137502207778       -2.97095770169658
H            4.62762912111674        8.10631042884897       -3.10421992723580
H            3.84362381599354        5.88545913270158       -2.45842516503315
H            2.03628637231002        4.42709322992580       -1.62679701569238
H            0.22734727881838        2.98738517898735       -0.81359534230509
