40
 energy: -8.760335837169 gnorm: 0.000465492217 xtb: 6.5.0 (97a52f5)
Cl          -2.05392059934437       -0.01213083301854        0.12315700715445
C           -0.31178162808147       -0.01459929659244        0.06530836124523
N            0.28237071269197       -1.21096618735358        0.05202108332796
C            1.58967151954294       -1.19021151572754        0.01543642300666
C            2.33432414137915       -0.01813130193296       -0.01387885374128
C            3.81488677597650       -0.02010247031429       -0.05551456036461
C            4.56403048390341        0.59004459731939        0.98525180699597
C            3.92428841575810        1.18964049620070        2.09574616738489
C            4.63808761827219        1.78938061184177        3.08674393834336
C            6.03400407803881        1.82424965809841        3.02621920092473
C            6.68887483987725        1.24313467684942        1.98478190984766
C            5.98653673171685        0.59381811029824        0.94224093597894
C            6.67514083743556       -0.02519308223412       -0.13429358282070
C            8.15606143729375       -0.02709034908617       -0.17396020719617
C            8.92472319692258       -0.63024462129510        0.81311776777552
N           10.23276140243721       -0.63325594600774        0.80473490489674
C           10.80245572919983       -0.01385049724377       -0.23278416034970
Cl          12.54508724706753        0.00355203124766       -0.26669579552596
N           10.18072379453094        0.59539962715406       -1.24617796513378
C            8.87373634898890        0.57991194578851       -1.19645791471191
C            5.92632649472949       -0.64110349248468       -1.17159501862489
C            6.56804984699221       -1.29203296475123       -2.25146903068148
C            5.85470326181978       -1.87012089488797       -3.25556275579147
C            4.45765285538885       -1.83049292251237       -3.23909666992234
C            3.80150969670477       -1.22903704372002       -2.20998931594869
C            4.50353391575504       -0.63232119634566       -1.13618095184390
C            1.59234041627463        1.15590621119691        0.00027425796304
N            0.28523699412719        1.18014504279211        0.04083101330579
H            2.10203347461105       -2.13946306923012        0.02388165634200
H            2.85114310407770        1.16082685146201        2.15694487658256
H            4.12885062342311        2.24268203702372        3.92144796371372
H            6.59007621748481        2.31098118601989        3.81071654538398
H            7.76271615826525        1.28156331217934        1.94417665366799
H            8.43094805125999       -1.13608687820287        1.62795764354647
H            8.34002488124513        1.08217519586368       -1.98798185708435
H            7.64240116776824       -1.33411567309648       -2.26980753891416
H            6.36504430083165       -2.35854563632698       -4.06952742447729
H            3.90166253255822       -2.28152089114374       -4.04470044629260
H            2.72671178479062       -1.19670780968316       -2.21178393415683
H            2.10571113828476        2.10389298185582       -0.03730213380540
