49
 energy: -9.392681662913 gnorm: 0.000707716018 xtb: 6.5.0 (97a52f5)
C            1.54159532183906       -0.46202097647439        0.70522113334767
C            2.73043050638893        0.14519035757220       -0.05518674436383
C            2.23153080030755        1.27798510490199       -0.96170020741032
C            3.76458259017572        0.66623285928691        0.95176703362555
O            3.30929564465892       -0.91768322121326       -0.85956528452769
C            4.40523697212016       -0.55107545998616       -1.59579124853490
O            4.86380548697105        0.57777694141519       -1.63491179494190
N            5.00640577883201       -1.57218108879667       -2.31504446527375
C            6.34745933560241       -1.40351871458672       -2.85500042223638
C            7.39709653647046       -2.01258294975013       -1.92214753117448
C            7.23572377144248       -1.56157666756558       -0.50400457690387
C            6.65611267251345       -2.42881644428299        0.44625156851061
C            6.39453610417039       -2.02966106154449        1.72581331400577
C            6.70418337193340       -0.71699774420416        2.10186879634649
O            6.53140504465219       -0.00313157139874        3.25452534065262
C            7.02405177487346        1.25289394378402        2.96930904979776
C            7.02376739900975        2.33835294226467        3.95147549477540
C            6.50915914373030        2.07968012098831        5.21429445413512
C            6.49278487983373        3.07214748630192        6.15620259967389
C            6.99565065444290        4.29975045735481        5.79957720016277
C            7.48527184151073        4.47010718207630        4.52638348634098
N            7.51245184067274        3.53087617952106        3.59763766630516
N            7.48451507953906        1.37332150550705        1.73665829840445
C            7.30052449219555        0.16223780565334        1.16112317275667
C            7.55925165051959       -0.27659406291864       -0.14619141005009
C            6.43154678695057       -1.97099761069189       -4.26054655639382
O            7.47276522623484       -2.46308591441446       -4.63832252723815
O            5.30971850757703       -1.85663475170391       -5.01277068507045
H            1.05290926757477        0.27918540000788        1.33572151228269
H            1.87760163394465       -1.28449265855719        1.33400065154436
H            0.80897019040794       -0.85853554955903        0.00471760690384
H            1.75172736528306        2.06489613991700       -0.38190646716070
H            1.51444602301423        0.89549280892747       -1.68558328325209
H            3.06170174524834        1.71603869247484       -1.51280436604080
H            3.34273457763539        1.44348467652945        1.58677714765832
H            4.62698715862049        1.07925287725136        0.43179366867964
H            4.11597548959288       -0.14361789504719        1.58785582704221
H            4.72487376313932       -2.53520567766974       -2.15771734169376
H            6.51440338146381       -0.31872392302581       -2.91867503918291
H            8.40263873098072       -1.77254380019650       -2.28228905019488
H            7.31795812877252       -3.10228084373461       -1.97220351432717
H            6.39974598796276       -3.42881723404858        0.14130331065911
H            5.94271759818975       -2.69123087752013        2.44279649694088
H            6.12878697740962        1.09680927519008        5.43487668806900
H            6.09934382134951        2.89669252411308        7.14416543644990
H            7.00613514724040        5.11357109550941        6.50593172748614
H            7.88204439251113        5.43273791110865        4.23960299266178
H            7.96986935213998        0.40873745982900       -0.86414164742301
H            4.59800005235293       -1.42089504855038       -4.49974751183048
