41
 energy: -8.348539835493 gnorm: 0.000648335461 xtb: 6.5.0 (97a52f5)
C           -0.96115775153636        1.45340501895296        2.26768286709494
N           -0.65364246339008        0.41863160609705        1.29351211812319
C           -1.49868550223154       -0.69826529941578        1.28017411218596
O           -2.43412815112990       -0.77591788868502        2.06643316874485
C           -1.24973010361268       -1.74523204362345        0.31533641832181
N           -2.08034468226074       -2.82678505928373        0.29432715176223
N           -2.31627539345389       -3.49520854335880       -0.72787962144164
C           -3.07747572234573       -4.62926884461405       -0.64266133990398
C           -3.29263839583772       -5.21145389949737        0.60429495758485
C           -3.99835981645758       -6.37624017396167        0.72228687090388
S           -4.21732671545530       -7.07644255981322        2.35753507740243
O           -3.49224557384700       -6.15357370005229        3.28008320210875
O           -5.68376908106234       -7.25356555808315        2.55976330931071
O           -3.43049771688737       -8.45506149358102        2.29776524769675
C           -4.51833411884179       -6.99457271125933       -0.39330623251025
C           -4.32910968367970       -6.43114948530317       -1.63565703440900
C           -3.62081200832581       -5.24765871334446       -1.78556563638532
C           -3.46901212507733       -4.67959213946474       -3.14917705210647
O           -3.58454273571150       -5.42919030781970       -4.10024581085036
O           -3.23336195127285       -3.34724193330921       -3.27993151887223
C           -0.16960567328049       -1.64848291671065       -0.55843351398912
O            0.12077047676634       -2.63123895905101       -1.44162482120117
C            0.68121324402802       -0.48330400583585       -0.51435227200644
C            1.76231890523798       -0.37600788387380       -1.38677924755999
C            2.58292166280252        0.72058149962657       -1.35227092882447
C            2.34021255516713        1.73808995710117       -0.44087880406287
C            1.28300582464935        1.65240807478513        0.42775642948232
C            0.43110876692267        0.54412843835082        0.41351068404474
H           -1.85353006890929        1.16784428794539        2.82323446422627
H           -1.15394195606476        2.39856988448413        1.76407915937202
H           -0.13566208685065        1.56511587099493        2.96772396267729
H           -2.88757920709146       -4.73942836940990        1.48527567942945
H           -2.85916356674099       -8.58241479933642        3.06290839558355
H           -5.07144157170458       -7.91401325703874       -0.28395225641600
H           -4.72945710363034       -6.90489655836481       -2.51776148253056
H           -3.18221062124921       -2.90306235033983       -2.41148420526396
H           -0.53404672987263       -3.35450645021480       -1.35137859793236
H            1.93754909452100       -1.17691731583870       -2.08613458465683
H            3.41790872860443        0.79288490348301       -2.03092913291171
H            2.98893669270479        2.59927759613831       -0.41606419940201
H            1.10902232642925        2.44703608252566        1.13171501716794
