42
 energy: -8.413481327322 gnorm: 0.000910514705 xtb: 6.5.0 (97a52f5)
C           -1.39595027215766        1.85154255729134        1.78272602009747
N           -0.98677833110733        0.73763400999428        0.94317947515723
C           -1.93261794244836       -0.27613701523169        0.74635816154576
O           -3.02987408219427       -0.21347465250370        1.28606763087329
C           -1.57564050264850       -1.39910243391563       -0.09077218322336
N           -2.42234652851309       -2.46478083677842       -0.18340718499565
N           -1.99865284739710       -3.63348437957349       -0.21552870719434
C           -2.88210372051062       -4.70500467433036       -0.24499677857672
C           -2.91055726453682       -5.58640948477087        0.83619138478386
C           -3.78650084941004       -6.63903098738567        0.85760630483571
S           -3.77853519631831       -7.74152475576670        2.27083901496408
O           -2.69223453772226       -7.25528260273925        3.17104980916156
O           -5.16666023774271       -7.74990971923407        2.81590302755213
O           -3.35577883034760       -9.14822746161667        1.66791995722015
C           -4.65540888028358       -6.84637802613191       -0.18794412675482
C           -4.63596296722277       -5.98602262982039       -1.26993617269642
C           -3.76000420267877       -4.92962877573608       -1.30328454929982
S           -3.77919280582108       -3.88043611687476       -2.76061832991158
O           -4.34278017259371       -4.71449049826788       -3.86282530747040
O           -4.53615542658268       -2.63617256628762       -2.44042324506046
O           -2.24145413617867       -3.64717229205246       -3.08124190554100
C           -0.33424035137107       -1.44189419385419       -0.71580162454489
O           -0.01922723298091       -2.42907640578244       -1.59252660904246
C            0.63426330948822       -0.40627884379497       -0.44716103817917
C            1.90114675052066       -0.46772740865650       -1.02360899884089
C            2.82640944194274        0.51373619943894       -0.78405759381989
C            2.50300948347793        1.58322238811527        0.03806762337968
C            1.26061037988053        1.66640181180656        0.61146272521722
C            0.29802144517269        0.67890396811435        0.38272722870001
H           -2.43225017637741        1.70755775124639        2.08733696800846
H           -1.32339740646764        2.78551306545460        1.22837150527791
H           -0.77431437659030        1.89659094844429        2.67507600838941
H           -2.23848214912208       -5.43152074799476        1.66410656960681
H           -2.75010108708935       -9.62514343798913        2.24461371878147
H           -5.34031461859854       -7.67917480823135       -0.15746529803816
H           -5.29949634782623       -6.14615551690484       -2.10637534691273
H           -2.03904720670907       -3.91550081183122       -3.98409843974131
H           -0.83527989864155       -2.88983019800221       -1.92318735737403
H            2.13472262068558       -1.30527382848227       -1.66084703514955
H            3.80505271571448        0.45579073256954       -1.23361104593780
H            3.23447223806258        2.35344859023275        0.22530343576312
H            1.02391220125237        2.50188408784341        1.24652230898241
