52
 energy: -10.804576244474 gnorm: 0.000942569063 xtb: 6.5.0 (97a52f5)
C           -1.69907770143031        1.95164044399943       -0.96330320832452
N           -1.06274566393659        0.73431847617998       -0.48881032932866
C           -1.84980901345710       -0.42398155154683       -0.48338913184623
O           -3.01226359538927       -0.38478031383301       -0.86935810515493
C           -1.26622241935026       -1.66137631951454       -0.01570096418074
N           -2.05830216671696       -2.77275873974734       -0.03517074573908
N           -1.77602137251515       -3.89236925432727        0.42630432237775
C           -2.67350890328228       -4.92372599336542        0.28944798551890
C           -2.42997237395914       -6.17272180214397        0.86096728602465
C           -3.32233206579928       -7.20111337632795        0.69455509937603
C           -4.48855789919639       -7.02177649901687       -0.05240478713898
N           -5.38943465557898       -8.09031915773363       -0.23427674399271
C           -6.63205166429218       -8.04720966405117       -0.94423354884670
C           -7.80190983064580       -8.27508176476204       -0.20818025786083
C           -9.03831769128126       -8.24150713769514       -0.80049053386630
C           -9.15130609584959       -7.99124385791918       -2.15394063170743
N          -10.46090246010022       -7.94971114161916       -2.79241205953350
O          -11.46753467092965       -8.15130224752670       -2.09951204916018
O          -10.52089782956240       -7.71314838814685       -4.00668863062996
C           -8.00606564588730       -7.78679728473681       -2.90355645268085
C           -6.76406415571622       -7.81422497534016       -2.32716493536429
S           -5.42065034851232       -7.55751983586629       -3.51918253963470
O           -5.89456855871405       -8.09997697772611       -4.83013990795707
O           -5.15011626320117       -6.08745856199451       -3.46973229420719
O           -4.23620212711078       -8.41131829078525       -2.89680791287533
C           -4.73680987113121       -5.76600432897802       -0.60543149348123
C           -3.84561636068388       -4.73858678602419       -0.44060438747124
C            0.05859418261182       -1.68638527989710        0.41242213176647
O            0.64386741356620       -2.82705013710916        0.85053408636173
C            0.84252111098880       -0.47511087659009        0.38809870556390
C            2.17112050453624       -0.49277234434943        0.80909867002630
C            2.92693185737348        0.65004708019159        0.78935445292927
C            2.36961317953754        1.84076301025840        0.34683398707235
C            1.06470016792356        1.88119489890269       -0.07231638955023
C            0.27329394994238        0.72938661300686       -0.06298609664259
H           -2.73002518111527        1.73389355918652       -1.23944615354614
H           -1.17792024356849        2.33006553076213       -1.84047025333027
H           -1.70129863536746        2.70423352498776       -0.17731587538880
H           -1.53077374298597       -6.31761981387238        1.43420222589506
H           -3.12356023341527       -8.16425533589684        1.13171798598157
H           -5.31517333930912       -8.82613732135645        0.46187139245272
H           -7.71778319621025       -8.45824437323375        0.84920480679142
H           -9.93440386249691       -8.40601772272218       -0.22530805018032
H           -8.10313200806595       -7.62442081918726       -3.96623768943284
H           -4.43556914362544       -8.38900358029699       -1.93792087072448
H           -5.63142528969165       -5.61624444215931       -1.18410848512074
H           -4.02802210075619       -3.77340166964403       -0.88103822994759
H           -0.02806976026078       -3.53649063723192        0.80537137590558
H            2.58903505990549       -1.42543246764891        1.14947001286307
H            3.95368037464995        0.62446024313550        1.11690959221526
H            2.96701022439640        2.73817111244884        0.33203009275784
H            0.64466011566542        2.81044657885647       -0.41396446703753
