50
 energy: -10.341817133201 gnorm: 0.000727713733 xtb: 6.5.0 (97a52f5)
C           -1.45725908735801        2.02398387894007       -1.00490002091198
N           -0.91207389368271        0.73814225523332       -0.60413146116132
C           -1.80632792609605       -0.33990104643848       -0.55118629677523
O           -2.98761095899905       -0.18261238672080       -0.84157140312184
C           -1.30786183004962       -1.63734401421260       -0.14693449308801
N           -2.20272523870179       -2.66992936727952       -0.10443611322261
N           -1.97294449341861       -3.82820352071114        0.28750764669378
C           -2.97484848120157       -4.76705807722894        0.26854092420581
C           -2.75890201725711       -6.06782049279318        0.71594418183851
C           -3.77220341841353       -6.98949569722138        0.67409403463314
C           -5.03689640743036       -6.66477877440759        0.16644481135454
N           -6.03522740822691       -7.67787285579164        0.16366272149250
C           -6.85954634786337       -8.10088512339895       -0.90152196361644
C           -7.92596208181833       -8.96566225594297       -0.66068295781200
C           -8.71633785877704       -9.41041662897720       -1.69518967384608
C           -8.45560507762967       -9.00769145969659       -2.98987997396833
C           -7.39676489121102       -8.15966351723694       -3.24606550094928
C           -6.60361604684060       -7.71482403962486       -2.21423229862190
C           -5.25165025793201       -5.34704871954741       -0.26383688198974
S           -6.79928746200267       -4.68129350045537       -0.89177342637892
O           -6.78980010289805       -4.87726479056508       -2.37570360481527
O           -7.95386955057792       -5.24539923758272       -0.12661595069153
O           -6.66299937950785       -3.11171505560873       -0.63125445383466
C           -4.24095275572492       -4.42910386908059       -0.20543129621927
C            0.03920242660428       -1.79478273076843        0.17458352632260
O            0.54351980250606       -2.99454176490134        0.55740636780643
C            0.93176940582215       -0.66407323219013        0.10072528751837
C            2.28162920302372       -0.81500867550562        0.41534995058306
C            3.14035035838013        0.25079711368667        0.34822827224689
C            2.66741561639749        1.49703625227624       -0.03625076614824
C            1.34313468114732        1.66840510717446       -0.34947740580128
C            0.44743859848067        0.59741685733349       -0.28912053562256
H           -2.52392540883693        1.92210152479769       -1.19738847288085
H           -0.97229208475835        2.37086443659598       -1.91506042350487
H           -1.31670839584027        2.75516162548996       -0.21141074364542
H           -1.78890612859282       -6.33583963657629        1.09602250797474
H           -3.59860042879832       -7.99455731013796        1.01694966737117
H           -6.04766335589434       -8.28271200115803        0.98102015721582
H           -8.13112640417276       -9.27330883468695        0.34974038647701
H           -9.54170503269608      -10.07395358224166       -1.49457835027860
H           -9.07866638793681       -9.35362733988274       -3.79807853230968
H           -7.19474152778173       -7.83971955584968       -4.25534130908762
H           -5.78404150711950       -7.04612024723978       -2.41020885002859
H           -7.11301758420188       -2.60727675312266       -1.32142128571408
H           -4.42193347279389       -3.40886851519831       -0.50356207378017
H           -0.20267999979472       -3.62814461284446        0.55529045114998
H            2.63345837988286       -1.78854726003525        0.71160553705830
H            4.18183309302349        0.12186653515375        0.59318926703183
H            3.34542981884769        2.33311734869461       -0.08897459180956
H            0.98812930871175        2.63910354747824       -0.64590458734711
