44
 energy: -9.152594166045 gnorm: 0.000572110602 xtb: 6.5.0 (97a52f5)
C           -1.68106720230752        2.18446808353477       -0.53764631056038
N           -1.07600562231272        0.88834939693308       -0.28181974380602
C           -1.94150357256106       -0.21323896018256       -0.23497874926776
O           -3.14426587659316       -0.06612989819656       -0.41849052314187
C           -1.38640586353895       -1.52228089867856        0.03719730894916
N           -2.24795500438539       -2.57658855784436        0.08787173182859
N           -1.98357631154540       -3.72507945002491        0.49851817083091
C           -2.94002482790444       -4.70507869690640        0.47360361111141
C           -4.15434953198821       -4.47097764312408       -0.13402868996516
C           -5.13353298967649       -5.45800935840883       -0.18199807045434
C           -4.91911867976797       -6.68375709521600        0.36988382049096
S           -6.26897678707505       -7.86647772956436        0.25800315516508
O           -5.69302793306272       -9.23103199368612        0.04525622862960
O           -7.08011617415695       -7.67360046730498        1.50108627582061
O           -7.06337825863996       -7.46282627910795       -1.06223696871618
C           -3.69301543463624       -6.98422843878159        1.00563066071904
C           -3.41764976489728       -8.24002691945066        1.59255332583554
C           -2.23322114539573       -8.48078196952021        2.21914625220155
C           -1.25846018177847       -7.48395468426386        2.28936820101901
C           -1.48217002353829       -6.26399151495807        1.72391696721089
C           -2.69293101668378       -5.98185471926923        1.06757040758022
C           -0.01067441335813       -1.66800031665215        0.22213520516322
O            0.54633178186672       -2.87925813193957        0.44949330883921
C            0.84922046040209       -0.51035078883650        0.16053056985629
C            2.22340496837677       -0.64781180496367        0.34657936189570
C            3.05054529223393        0.44319043189368        0.29108042873742
C            2.52045159098387        1.70180546886984        0.04625575016647
C            1.17175317690120        1.85998530577922       -0.14113652149335
C            0.30678388377988        0.76267545594765       -0.08946579890587
H           -2.75640968984925        2.06432935472821       -0.65922646616815
H           -1.27489841943756        2.61539424870023       -1.45050134745149
H           -1.49952773961037        2.85477711597710        0.30014552129374
H           -4.33009501702816       -3.50327556463222       -0.57019058171390
H           -6.07791759270715       -5.25758995568138       -0.66293839988094
H           -7.25946995165284       -8.24176713502227       -1.59796878670391
H           -4.15856410989541       -9.01658022247136        1.51849255752266
H           -2.04331635375015       -9.44547412082359        2.66066577361088
H           -0.32537539517644       -7.68324456439109        2.79099527627093
H           -0.73395175101808       -5.49386212949145        1.78207213974118
H           -0.18455853126430       -3.53198271507060        0.45549380935721
H            2.61915165847605       -1.63135305180648        0.53563890045776
H            4.11174601103791        0.32477166548779        0.43745209908875
H            3.17388339814127        2.55792682734893        0.00282669949379
H            0.77297894498863        2.84036242106983       -0.33129656065718
