62
 energy: -13.190041074674 gnorm: 0.000376100151 xtb: 6.5.0 (97a52f5)
C            1.30608455989518       -0.19877942532805       -0.89524796135185
N            2.73244981058555       -0.06396363253401       -0.66454841188565
C            3.31063636779993        1.20825530919226       -0.71810528879564
O            2.63298404219339        2.20954824635772       -0.96376356728088
C            4.72034313488890        1.31876939182398       -0.47778201464147
C            5.50677982951979        0.23537696658547       -0.19760959553935
C            6.96235610284166        0.36873312295020        0.04959001939417
O            7.68645699596516       -0.60345959227119        0.16597047919349
C            7.55336301815523        1.73430659307653        0.13892313725363
C            8.60031364135340        2.08851433726439       -0.70247948895298
C            9.16795618586455        3.34088002470770       -0.62550207881216
C            8.70264466667352        4.25488960378357        0.29834571990663
C            7.67164009430843        3.91106217318156        1.14952737459107
C            7.10266991850683        2.65918177447693        1.07499789447374
C            4.88379584784086       -1.03541816848742       -0.17324081213773
S            5.59496197658798       -2.59191767903193        0.11646597291453
C            4.08555994232001       -3.44889999730605       -0.07421557150535
C            3.94558981135313       -4.89334808480623        0.02660897099466
C            2.79561839147640       -5.55076709226440       -0.41953584635601
C            2.69424270284529       -6.91770162969147       -0.35108669566077
C            3.73153132096915       -7.68736968655818        0.17406114135077
N            3.63171486257895       -9.11519340552405        0.21732288172678
C            3.00979967409803       -9.82070189003934       -0.86758049267160
C            2.22933557072611      -10.94962693366593       -0.63253460180364
C            1.64107531629512      -11.62609089786173       -1.67713452359941
C            1.82111317062508      -11.18918248078874       -2.97480736269915
C            2.59199865820870      -10.07103306309325       -3.22433603451969
C            3.18050616398426       -9.39236379700191       -2.18164837160686
C            4.17377669276205       -9.84358558434961        1.32869530027172
C            4.78459877533091      -11.08079839604500        1.14158210697494
C            5.29735502144326      -11.77963734285133        2.21081412791752
C            5.21009291235619      -11.25687019693247        3.48601810897536
C            4.60795272499358      -10.03063286866402        3.68801622853473
C            4.09486641155691       -9.32961088562103        2.62039811048913
C            4.87483006281292       -7.03430312937125        0.63311906340203
C            4.98076004473617       -5.66827088013580        0.55452802923561
C            3.09225424169287       -2.54812481758448       -0.34199216366453
C            3.52810133105164       -1.19030883531568       -0.40056827362225
H            0.86685778676037        0.78166890101588       -1.06999315564432
H            0.82697807606332       -0.64657806981180       -0.02665567537697
H            1.12492677362261       -0.82394030635299       -1.76744046548812
H            5.15370608605856        2.29899466424094       -0.52905640562127
H            8.96174104218206        1.36641430971928       -1.41431831170461
H            9.97695013876551        3.60662813773594       -1.28607763576413
H            9.14727356748994        5.23473701725746        0.35803648251193
H            7.31315555682469        4.62256176615755        1.87525503326747
H            6.30783270409094        2.38187057183905        1.74583908781513
H            1.98806004209636       -4.97708816717770       -0.83836152409780
H            1.80599954715102       -7.41516301648411       -0.69878229434796
H            2.08580747570611      -11.28054566748817        0.38101749724987
H            1.03840110945666      -12.49782885598304       -1.48202179267545
H            1.36105958735350      -11.72035961725390       -3.79175367363692
H            2.73454143436272       -9.73060457923573       -4.23681392250504
H            3.79011213189117       -8.52629269594997       -2.37068920707126
H            4.85801048268834      -11.47917619421327        0.14496473057496
H            5.76805425398369      -12.73599586112378        2.05239299409158
H            5.61105780099297      -11.80524007797608        4.32250674580153
H            4.53788065433752       -9.62290548472693        4.68306513072622
H            3.61486076216476       -8.37893127688690        2.77278137409270
H            5.68323786883226       -7.62144630736367        1.03167745771715
H            5.87273724755930       -5.17495850417258        0.89874391915140
H            2.06355787235825       -2.82840783600633       -0.49122189957361
