28
 energy: -5.876156625601 gnorm: 0.000935294844 xtb: 6.5.0 (97a52f5)
C            0.98772218942426        0.04587694609185       -0.07496883725172
N            2.43148958224257        0.03414606756144       -0.07977235836742
C            3.12337023909671        1.25051451378172       -0.07744638364467
O            2.47491311935510        2.28767764234287       -0.07020876651406
N            4.48954785163225        1.27977549935645       -0.08298976668211
C            5.14736680012667        0.13560030032911       -0.08651309818071
N            6.53455875055849        0.17632381925701       -0.09153908810284
C            7.20014924565582        1.47455044337456       -0.09496692300502
C            7.25822437885824       -1.01082367356872       -0.09408400332988
C            8.65721692862492       -1.03836109359017       -0.09856172763261
C            9.33583763237393       -2.22785039315267       -0.10075564719120
C            8.63906121161007       -3.42814739253534       -0.09861123220547
C            7.27004432180241       -3.42702630234992       -0.09424973239977
C            6.54669672941657       -2.22771704063188       -0.09190639598894
N            5.18001649831412       -2.28489057058276       -0.08804035180857
C            4.52566072316274       -1.14756984149500       -0.08565408355265
C            3.07662454917803       -1.19476602027177       -0.08229206898833
O            2.45674865460537       -2.24504775540066       -0.08140445762815
H            0.62530478978290        1.07308737634058       -0.07365279973829
H            0.62380398988728       -0.46875267545722        0.81250862085866
H            0.61774768408117       -0.46873181748428       -0.95995465905821
H            6.45757075183116        2.26947028906215       -0.09316266960132
H            7.81430687941056        1.57790673893824       -0.98724303693057
H            7.82050251624605        1.57959505367756        0.79281614448829
H            9.20459519112465       -0.11286446271100       -0.10017902841459
H           10.41376382812039       -2.23392613110552       -0.10415758812541
H            9.17777868036636       -4.36171972897609       -0.10039061461072
H            6.72181628311119       -4.35321979080051       -0.09263944639372
