57
 energy: -10.362787810026 gnorm: 0.000684743248 xtb: 6.5.0 (97a52f5)
C            1.07641440580353        0.01391812857077        0.16735767275523
N            2.53091972758855        0.02865891867618       -0.00643384383758
C            3.22845756745338        1.25326399667399        0.08201508574666
C            2.56912534817700        2.47980356508561        0.08920814909556
C            3.24722305111084        3.68787984536851        0.20315972281365
N            2.55886796674342        4.91924924621659        0.20061084032936
C            1.11579510845788        5.02390579150459        0.50674114343121
C            0.31009391265521        5.29207382041223       -0.76782020238990
C            0.83616576427329        6.55069881222309       -1.47999454175376
C            2.35028852920670        6.44823538671381       -1.73957959231612
C            3.11245192718830        6.12703421324583       -0.44799438600063
C            4.65566413883589        3.66167655636070        0.31801959858354
F            5.35268305425446        4.80985795249628        0.50986882706842
C            5.31601251132623        2.46100812074448        0.28828992536050
C            4.63383543761129        1.25426443622825        0.16529875145293
C            5.37968636436185        0.00560880872573        0.11301554474403
O            6.60125624116700       -0.01079980555165        0.22342921649611
C            4.62428444232326       -1.22048906571077       -0.09729205774253
C            5.29753820831873       -2.43131402904526       -0.22754829033756
C            4.62950401908747       -3.60521495525748       -0.46007581987608
F            5.32995112448766       -4.75253987119677       -0.64426061143073
C            3.22023808173461       -3.59840492782950       -0.56946632051764
N            2.52402252579384       -4.80116995409103       -0.81392266158022
C            1.15546394478044       -4.83262886250369       -1.37389072355051
C            0.13792810127478       -5.21773192632012       -0.29608831831627
C            0.52158975114080       -6.56193294956640        0.34707807967514
C            1.96737268052176       -6.53052601242251        0.87522734836605
C            2.94738777040965       -6.08648410814537       -0.21801041391460
C            2.55143092859238       -2.38730577472416       -0.43412046303336
C            3.21943293717440       -1.19155651041188       -0.18325102925313
H            0.75400984012321        0.83788262127457        0.79927557318740
H            0.75842011075867       -0.90000221002617        0.66362739981446
H            0.58232462169321        0.08873420616067       -0.79925012065524
H            1.50846707522509        2.50154712804383       -0.06524350265483
H            0.98576607475925        5.84701072029553        1.21647253149158
H            0.77919590125876        4.12377292715211        1.03023121639516
H           -0.76052156179531        5.38610482538495       -0.54071854004414
H            0.39871680438108        4.43031251362602       -1.43968710202024
H            0.63240484917890        7.43167331509572       -0.85966730026715
H            0.29198121220756        6.72025174934496       -2.41923212556495
H            2.73136813475325        7.37232917892231       -2.19502582956720
H            2.53897506515231        5.65561966205016       -2.47324770767591
H            3.04502318303868        6.95759771988567        0.26082913650483
H            4.17681186271969        5.97291287587663       -0.64668417434325
H            6.38739228343944        2.45160289599993        0.36605406571116
H            6.36959115817985       -2.44421832117485       -0.16025978791199
H            1.14519929619584       -5.56978492995215       -2.18305539511647
H            0.92144595883110       -3.87232113160497       -1.84340494369740
H           -0.87774526472027       -5.25556111019928       -0.71271322967463
H            0.11628047292666       -4.43886180724855        0.47504730319041
H            0.42341849902373       -7.36215982296403       -0.39610924960258
H           -0.18006306254051       -6.82038841841004        1.15197382353387
H            2.25591777843608       -7.51069708609220        1.27863690074152
H            2.03018857598997       -5.83224249396910        1.71822456500715
H            3.00511124276958       -6.83192832559753       -1.01664584453623
H            3.95953062188820       -5.97969741176515        0.18230938415457
H            1.48298369427308       -2.38094811657132       -0.51702767647324
