27
 energy: -5.672358311128 gnorm: 0.000605556530 xtb: 6.5.0 (97a52f5)
C            0.92385949770876       -0.08808906749591       -0.04588938867224
N            2.39009893723375       -0.03256413101853       -0.04605571688866
C            3.07580734440355        1.20397222338525       -0.04588469982720
C            2.41694851797689        2.44170381019496       -0.04647810121161
C            3.11418203692492        3.62380833921872       -0.04586664099706
C            4.49840950835156        3.61988422503143       -0.04469414830856
C            5.17214825112078        2.42570260233927       -0.04430938006953
C            4.48497244988473        1.21657751364064       -0.04495856964210
C            5.24473658438438       -0.03084251966010       -0.04440702517644
O            6.46792697673114       -0.02932660046066       -0.04328143942866
C            4.48979569995546       -1.27952497902862       -0.04512996633608
C            5.16783173411769       -2.49387889567476       -0.04498496495036
C            4.48297232787923       -3.68280354732746       -0.04535530754128
C            3.09779506256793       -3.67761982648810       -0.04586512173917
C            2.41108791317277       -2.48971105067867       -0.04604418084169
C            3.08365218681756       -1.26079760069004       -0.04573150148525
H            0.46339708929649        0.89288920158045       -0.04542612344459
H            0.57492965340332       -0.61475352980797        0.84035462843212
H            0.57465157782233       -0.61413495252574       -0.93238748124767
H            1.34478727076559        2.48740767149986       -0.04776625483343
H            2.58361214975590        4.56205358863690       -0.04630464767679
H            5.04259958355592        4.55004420343929       -0.04413973774714
H            6.24857803413981        2.40566219557563       -0.04347747275984
H            6.24433589879970       -2.48260995405356       -0.04451806367913
H            5.01998342659594       -4.61709481507448       -0.04520961803250
H            2.55964541932443       -4.61139741199302       -0.04609938787941
H            1.33634486730945       -2.50788669256475       -0.04648968801571
