32
 energy: -6.566558882888 gnorm: 0.000946071532 xtb: 6.5.0 (97a52f5)
C            1.22785787128148       -0.50686135061593       -0.65574699792546
N            2.65946748114166       -0.39276635083092       -0.40953605434171
C            3.59810031981856       -1.42963682538226       -0.31834677971946
C            3.46092345893254       -2.81686854744774       -0.44187110567780
C            4.57447997425699       -3.60567799018581       -0.30409036161595
C            5.83406368644864       -3.04768271828396       -0.04426759785382
C            5.99489966884117       -1.69161055663907        0.08042028474180
C            4.87112662942977       -0.87001811342571       -0.05800428161211
C            4.69179686328916        0.55023187587519        0.01082653367098
C            3.34396566360815        0.82334710777314       -0.20468529633080
C            3.16342670655429        2.24237137297085       -0.11586797845926
C            2.03703216396068        3.06384884089592       -0.23740297294390
C            2.19694443210292        4.42295165429265       -0.09090804879811
C            3.45566061565092        4.97753100253712        0.17453217112159
I            3.64191912700242        7.04790966955488        0.38602114492999
C            4.57118544452807        4.19004334062675        0.29814391785762
C            4.43633224353615        2.79939021607702        0.15235617775245
N            5.37705269447075        1.76430669415301        0.22516033291532
C            6.80527002269713        1.88004085572452        0.48776796628771
H            0.94492056420335       -1.54687063801973       -0.80143686292121
H            0.95863482438135        0.05590811716123       -1.54745892137526
H            0.67266227498251       -0.10940740895767        0.19162093131676
H            2.49527471064883       -3.24575999034084       -0.64047556376359
H            4.48156092175584       -4.67534691068645       -0.39659462516126
H            6.68832681925216       -3.69640143030908        0.05874752303937
H            6.95735377316579       -1.25519105128999        0.28033742522686
H            1.07433311857188        2.62971752559351       -0.44001737402422
H            1.34852942900602        5.08339603154432       -0.17875058615414
H            5.53137884970680        4.63131212281104        0.50438138030835
H            7.11703637998639        2.92160293422426        0.45538059619980
H            7.36696710833006        1.32611192217111       -0.26179911425028
H            7.03638615843973        1.47495859842275        1.47099413756251
