32
 energy: -4.876255482877 gnorm: 0.000840423672 xtb: 6.5.0 (97a52f5)
C            1.32988951261971        0.37404177555406       -0.07945623240817
N            2.74204605932778        0.17279411297773       -0.03353019413847
C            3.41616729467642       -1.05660405669633       -0.06966928999408
C            2.97145986922562       -2.34917202416153       -0.14795198246094
C            3.85705298256309       -3.31833931981529       -0.16320919519869
C            5.17815246654107       -3.08872985661746       -0.10541589564245
C            5.67673527988682       -1.87652271073278       -0.02742150696713
C            4.81097849073935       -0.81546988398685       -0.00521419114910
C            4.97574236021342        0.61034771731448        0.07194235635184
C            3.71375791395544        1.19531790627567        0.05759751335948
C            3.97214376749336        2.61253856571297        0.13030237653659
C            3.15571291516294        3.71937681876095        0.15131241718959
C            3.70070457882579        4.90976425394759        0.22065561828654
C            5.07337161451365        5.14467195641909        0.27555530970559
C            5.63840704215263        6.55151814463403        0.35197251462371
C            5.90365862247517        4.01923604058130        0.25610435972515
N            5.36849706654404        2.75294570043351        0.18407207935155
C            5.92155355854130        1.60272004374284        0.14888918409080
H           -2.53061492397348       -2.58265750228807       -0.00858058443751
H            1.06621167193005        1.01064232800755       -0.89726430023203
H            0.97950884492146        0.80047291812436        0.83647459081115
H            0.11953102578812       -5.98817085816265       -0.52744233198962
H            4.59985928771962      -10.84371067691270       -0.12367017795206
H           11.82923293965263       -6.56676540102116        0.19782441854193
H           12.19026203358812       -0.00190967245715       -0.07550626098379
H            2.75661387818451        5.34084329931976       -4.48476782833943
H           -2.61223937371136        5.15624568000895        0.23862080070851
H            1.08779807726543        8.86009984720054        2.17460820865281
H            6.96876825557908        4.14990565499474        0.29553566066063
H            7.50775399269205        1.05539193224151        0.27328529777332
H            6.63219710574954        1.34742391049726       -1.51690615926924
H            6.40024580777970        1.21501335422587        1.94515342401058
