25
 energy: -5.210520157295 gnorm: 0.000922210020 xtb: 6.5.0 (97a52f5)
C           -0.02069608503607       -2.92716491419226        0.06177888184553
N            0.00197314309306       -1.46898587237551        0.02999127420718
C            1.14370076795705       -0.65305824629430        0.02832519336070
C            2.50700998912160       -0.96317886365001        0.03780529587324
C            3.41781020795794        0.06314270257660        0.03079278969360
C            3.00231583978052        1.39970923799483        0.01505228325260
C            1.66874135440778        1.72498985706820        0.00611601549880
C            0.72666678048088        0.69263032333597        0.01213411234948
C           -0.71612916806278        0.69495366107494        0.00984549850872
C           -1.65881957796827        1.72692440381207        0.01105404264937
C           -2.99246915838162        1.40063623444820        0.02036897342082
C           -3.40823757461030        0.06376653572079        0.03168726170227
C           -2.49680870910614       -0.96193825040356        0.03509484963048
C           -1.13480568191649       -0.64915526545317        0.02408524475350
H            0.98524591519989       -3.33039532129870       -0.03122847922253
H           -0.62399139153034       -3.30669565652901       -0.76081329349511
H           -0.44946977144729       -3.26987836494417        1.00174344263820
H            2.82578046156341       -1.98999094492843        0.04999983524708
H            4.47174491191273       -0.16235272475659        0.03763792293008
H            3.74109837601044        2.18436962742396        0.01048071260545
H            1.34160145758901        2.74981576897470       -0.00505993981443
H           -1.33228724277525        2.75200380038170        0.00551738986334
H           -3.73147349512913        2.18512284248981        0.02026482482164
H           -4.46205659781781       -0.16212309292978        0.03913997193829
H           -2.80966475129284       -1.99087747754630        0.04676589574175
