25
 energy: -3.211212690919 gnorm: 0.000575105758 xtb: 6.5.0 (97a52f5)
C            1.65520033585575        0.69631216377137        0.91412606034829
N            0.65090112210366        1.40305874784551        0.26789659744340
C            0.80929717628348        2.68877307903452        0.01046197253949
N           -0.06954245200402        3.50653034616816       -0.58036249865560
C            0.17926630773887        4.79468946926060       -0.80373931388808
O           -0.44167487001546        5.75417228717123       -1.32542061740985
N            7.09705640890335        4.82096033549394        0.71171368364917
C            6.66764334252798        3.60298484130209        0.53532696019566
O            7.26183618638202        2.39122153007061        0.39057410969817
C            6.69775372978581        1.19744009186989        0.18793700398929
N            7.12864897934289       -0.01850890733065        0.03833970945807
C            6.40530943843865       -1.09624687182165       -0.15565901105026
C            6.79387499546913       -2.34657854482095       -0.31665231820261
C            6.03026967398480       -3.37542612180689       -0.50676879665598
C            3.39261943473008       -7.86127486992115       -2.54958038923616
C            1.41638322972602       -0.60950222580557        0.89886169453752
C            2.81699489028504        0.83575764638596        0.28974711581837
H           -0.97603343236808        3.12378572583310       -0.87729099409641
H           -1.16004487374804       -2.34312550274127        4.27146199891336
H           -1.52264519387276       -1.12725831260837       -2.82465626666586
H            8.07409045682465        5.06146628801214        0.77542601577546
H           11.10675634522511       -5.02936981739861       -0.27089092455098
H            6.88656974545118       -8.09277853841596        0.48510889530164
H           -0.08342710324707       -8.04256158173571        0.59104114780979
H           -1.90275388369293       -3.88198125893366        0.40289814418727
