45
 energy: -9.951242661672 gnorm: 0.000701797326 xtb: 6.5.0 (97a52f5)
C            2.39781068307815        1.52234436992508        0.59029186118271
N            1.56752941324035        0.32959304132653        0.44408279401171
C            2.00206690559315       -0.97384124479340        0.43906501494342
C            0.93323698103063       -1.82209530740424        0.21231780869751
C            0.94505478680212       -3.29536556006664        0.14304135554249
N            0.23750722680098       -3.86361137833144       -0.81083991787158
C            0.29310701223783       -5.21093628636624       -0.83773065544956
C           -0.42338373351460       -5.91026291732582       -1.83130919123703
C           -0.38481659422610       -7.27122319842759       -1.90675179191001
C            0.37204393686639       -8.00198963849828       -0.99146582029214
C            1.07438090237433       -7.35869799905094       -0.01485817318227
C            1.05755846921895       -5.95349485450551        0.09508780148860
N            1.74980711063449       -5.35961457032633        1.09301661101240
C            1.67852164228823       -4.04941360586937        1.11020726790707
C            2.30341657791544       -3.35014525407637        2.16178240510833
C            2.75978473485725       -2.64114069132547        3.04662655600171
C            3.19644920916190       -1.69530372317934        3.99589599707599
C            2.97461832354177       -0.34162799140264        3.76704383758426
C            3.38248700906020        0.60309325545073        4.68292840782329
C            4.01906198278644        0.20987109616737        5.84256156078131
C            4.24720763906573       -1.12996874139961        6.08371462403039
C            3.83886985934141       -2.07687919709825        5.16831049112508
C           -0.21963728154608       -0.99102763857384        0.03655042739161
C           -1.56335069271890       -1.28909644483950       -0.22460750289756
C           -2.45901848102407       -0.25752556184240       -0.31920968806926
C           -2.04639292405786        1.07383578107672       -0.15936109623303
C           -0.73577112339273        1.38473069154890        0.09449492852226
C            0.19251342397321        0.34283327376015        0.19397933035811
H            3.43220200584130        1.24296956302744        0.78045642916243
H            2.03899025872353        2.12781195738870        1.42017707329668
H            2.35856774724802        2.11555332270076       -0.32107546121951
H            3.02528671712678       -1.27570206501411        0.57954232559436
H           -1.00428421980555       -5.34100938611183       -2.53540086780610
H           -0.93890936838195       -7.78546280632007       -2.67477359337671
H            0.39895742028477       -9.07730157665232       -1.05701593282607
H            1.65652538717009       -7.91783040285707        0.69629020245741
H            2.48306288595370       -0.04515756018751        2.85603385428665
H            3.20519314638865        1.64895371474561        4.49301208910955
H            4.33818267119978        0.94865709965021        6.55947747933534
H            4.74411302089758       -1.43687284178479        6.98941935412114
H            4.01227434319960       -3.12333587070760        5.35220869038054
H           -1.86328987492497       -2.31357637674814       -0.35158998088747
H           -3.49609224854426       -0.46968886511064       -0.52048931301308
H           -2.77410271395848        1.86456500342514       -0.23893698355322
H           -0.41308017718726        2.40304738549626        0.21797939183530
