35
 energy: -7.261341571138 gnorm: 0.000534291697 xtb: 6.5.0 (97a52f5)
C            2.43714189822696        1.56777370851310        0.07749771688696
N            1.60733888470730        0.36756366454177        0.02476050102791
C            2.05053426195354       -0.92868941405915       -0.00964724851523
C            0.96659139215473       -1.79089635712937       -0.05448103143184
C            0.99283150635023       -3.22885758322520       -0.09440402644241
C            2.10843902406012       -3.96977401215017       -0.08412744648408
C            2.06482087484241       -5.42091587462290       -0.14073677730409
O            1.00666933204741       -6.01104150699798       -0.27402455015526
C            3.33943670704225       -6.17974800288535       -0.04765585179313
C            3.45517735346632       -7.40013149118964       -0.69977462628437
C            4.61823073159151       -8.13418519653758       -0.61918964346493
C            5.68318516245692       -7.66098704614591        0.12024194216877
C            5.58018399727520       -6.45366213084393        0.78110500895168
C            4.41789096852364       -5.71815541323455        0.70103864093109
C           -0.21321150755546       -0.97160567734823       -0.04881666051279
C           -1.58192651203306       -1.27537250012284       -0.07695170776499
C           -2.48528330167844       -0.24498525788648       -0.05727998681059
C           -2.05997164244803        1.08974453865535       -0.01009295360590
C           -0.72681545912228        1.40697448275968        0.01868669164445
C            0.20818948852271        0.36796213360967        0.00006310292944
H            3.49041053155914        1.29715583263712        0.11307182644502
H            2.19462151636058        2.14859429238206        0.96498834069483
H            2.26194881706008        2.17937637849307       -0.80519881340029
H            3.08755654325865       -1.21392537015320        0.00374739841317
H            0.04905360386564       -3.74208233014746       -0.13696040395281
H            3.06698002153268       -3.48732718845016       -0.05319927639263
H            2.61665207468127       -7.76492533935010       -1.26795538286592
H            4.69509376877460       -9.07915588619437       -1.13158021117588
H            6.59233691290351       -8.23586398772695        0.18570552749554
H            6.40910249405166       -6.08751886118017        1.36468259111647
H            4.33352452381777       -4.78815656828955        1.23564340488148
H           -1.90495491799221       -2.30054452839281       -0.11222081656607
H           -3.54036423906577       -0.46288261427628       -0.07783148963401
H           -2.79440661500666        1.87812385318859        0.00410954701152
H           -0.39289819618511        2.42849125375822        0.05535666395918
