43
 energy: -8.426863427205 gnorm: 0.000838988791 xtb: 6.5.0 (97a52f5)
C            2.31603538840224       -0.09761313978358       -0.10513602572741
N            0.87034806699910       -0.11959220953272        0.11224592164158
C            0.12438759143480        0.90973288948757        0.64942700938300
C           -1.17861637772628        0.50577844325676        0.71369224841425
C           -1.24607803128210       -0.81109092980143        0.20063078944108
C           -2.46826120329015       -1.64177072843756        0.06278434636187
N           -2.70466309362994       -2.49008285706067        1.04053018745747
C           -3.84126657652497       -3.20913142864281        0.92654270558691
C           -4.17188232468620       -4.14466356312406        1.92720291006669
C           -5.31649255497342       -4.88496638851022        1.85498139266944
C           -6.18784493456122       -4.72358380698550        0.77829539415075
C           -5.89853908930815       -3.82681364909039       -0.20850744739443
C           -4.72374507806343       -3.04692983742544       -0.16835139280343
N           -4.46703106551388       -2.18390514145880       -1.17050279092947
C           -3.34009227856684       -1.49558565067489       -1.06918544744057
C           -3.06422764023103       -0.60888534816033       -2.17874259134642
C           -1.95788203490168        0.12729383721084       -2.42791067443320
N           -1.79322124133474        0.90928234478969       -3.54720897141536
C           -2.78082102862380        1.08865511271654       -4.64325612520624
C           -2.13994951972279        2.04047392407630       -5.67160769584498
C           -0.91851706157417        2.66479110543781       -4.96472799614793
C           -0.56860357419003        1.70215852059724       -3.81829287263291
C            0.04241781984356       -1.18148604043306       -0.14405505803188
H            2.68934597835962        0.92361219671474       -0.06020171983083
H            2.55287991115908       -0.51415725091937       -1.08220172654405
H            2.81528413725204       -0.68869038276325        0.66030536040769
H            0.52192064391563        1.86311317467286        0.95734146137544
H           -2.01458736839180        1.08183893223293        1.07544564957761
H           -3.49736229349976       -4.26272881624747        2.75711468484228
H           -5.54986769482032       -5.59545254834881        2.63103574363137
H           -7.09022837493267       -5.31055945262847        0.72706504808834
H           -6.56607701931107       -3.69973914329011       -1.04268066446244
H           -3.84545385309328       -0.56550154415646       -2.91465924405916
H           -1.13330717733454        0.12001145922754       -1.74636241001298
H           -3.69647059330850        1.51079331591612       -4.21842350788786
H           -3.03094297137394        0.11463173286131       -5.07491724723403
H           -2.84800598835540        2.80226841044552       -6.02193411572522
H           -1.81977533255676        1.48233811256657       -6.55975879727701
H           -1.17347545325642        3.65408947016861       -4.56567903822992
H           -0.07363651375292        2.81091996597041       -5.64987413489422
H           -0.25908535561374        2.22556223470472       -2.90832347983585
H            0.23530674751932        1.01416302365649       -4.09611360912438
H            0.34782441342021       -2.12597834923621       -0.56119606862482
