64
 energy: -12.394447749595 gnorm: 0.000761654671 xtb: 6.5.0 (97a52f5)
C            0.79989048111673        0.32603977991385       -0.19207917320491
C            2.33168140354724        0.20483623590523       -0.20414145281054
C            2.76888508279597       -0.75346359280871        0.91163805835576
C            2.78598925171654       -0.31071484880646       -1.57568948132204
O            2.87117341483823        1.53544577202258        0.03527719998910
C            4.24216430360104        1.61213438301192        0.07080973926994
O            4.99642734052331        0.66716543029543       -0.09253056428865
N            4.75070868388682        2.87577248888609        0.32049668575710
C            6.17720817647559        3.11282485369448        0.42979954926049
C            6.51928785463569        4.32231296080274        1.28871160557581
C            8.01715426815308        4.50017982887386        1.49662981960670
C            8.35050194953496        5.67735931106492        2.37372137565675
O            7.58225503804446        6.03411276915431        3.24125427671415
O            9.56665030963893        6.24904375420925        2.12678773148409
C            9.80945986120789        7.31499964224302        3.02156775497899
C           11.23751014023429        7.77492411623609        3.01083361150253
C           11.53820462445372        9.09196414178234        2.79389126667796
C           12.85382613753484        9.54083940525038        2.79099116385769
C           13.91596336419668        8.68330661911023        3.00770154239541
C           15.30485247764556        9.14925420819086        3.00255184510891
C           15.63671913797224       10.47245375304977        2.76911108157259
C           16.95904327952548       10.90582891308559        2.76802489593466
C           17.97522065800395       10.02784617674482        2.99802158807415
C           17.70142129079759        8.66664301861099        3.23974877509281
C           18.74158105700047        7.74516502093954        3.47494427106559
C           18.46065781274657        6.43157262329758        3.70280645060383
C           17.14422646250505        5.98104047981696        3.70678922153711
C           16.08051941319245        6.83772800703874        3.48266177312712
C           14.69164367236493        6.37186160531473        3.48002041591075
C           14.36546362500945        5.04591940649896        3.70226669889345
C           13.04632641101330        4.60758321799656        3.68940293769135
C           12.03180457459885        5.48576323798531        3.45936379389745
C           12.29216688309388        6.85265306073607        3.23696414101523
C           13.63791380358867        7.30472909869003        3.24111689211531
C           16.35645745478649        8.21624942282785        3.24290859804137
H            0.32558109999498       -0.63831918745380       -0.36750805188521
H            0.46905550021449        1.01898651353916       -0.96332907701331
H            0.45855059636278        0.70888027046782        0.76783391188714
H            2.32840679220046       -1.74014433295427        0.77734829004089
H            2.46390379805875       -0.36929004295340        1.88317523237351
H            3.85144141573783       -0.86152923227488        0.91964661521756
H            2.35373088045824       -1.28646175759601       -1.79171842698643
H            3.86960565114923       -0.40229192820803       -1.60880387526149
H            2.48449801659482        0.38094504704159       -2.35997519691061
H            4.13026991642021        3.66924979287338        0.46563112331937
H            6.59281430627597        3.22158449687553       -0.57791741419573
H            6.63432049971323        2.20971384101182        0.84916276179234
H            6.02730050361892        4.22954770124136        2.26360404953844
H            6.09723645939871        5.22908876742933        0.84108462103317
H            8.52110220620319        4.62344296897322        0.53335181952429
H            8.44300825139941        3.59756220956994        1.94463407569230
H            9.53026941972269        6.98440346187564        4.02933829673052
H            9.13053724616832        8.13183946509119        2.75098301548899
H           10.73729058413502        9.79082509928161        2.62299619017487
H           13.03395438411832       10.58532290162489        2.61661312825824
H           14.86383690063871       11.19457831416864        2.58239987442695
H           17.17936994542145       11.94461864984895        2.58377697534816
H           18.99782665561375       10.36342321010038        2.99564298775591
H           19.76025738743571        8.09241904097566        3.47077425560027
H           19.26381146191545        5.73505235323039        3.88004858165161
H           16.96355316962942        4.93814588590966        3.88940737551321
H           15.13978445371697        4.32453011359358        3.88603764522698
H           12.82777939281525        3.56550090455823        3.85657443908254
H           11.01487340487922        5.13816117045924        3.42661268745554
