20
 energy: -4.240123577169 gnorm: 0.000881293055 xtb: 6.5.0 (97a52f5)
C            0.98572442314492       -0.03235967222767       -0.02902925847111
N            2.43820182819864        0.00892759849348        0.03850895754271
C            3.08030839901155        1.08996783657519        0.56803174339160
C            4.42620750046307        1.07790309647672        0.61618727362610
C            5.11604066096285       -0.04162342551104        0.12551066174960
N            6.54719956348020       -0.02280086045957        0.18842215196275
C            7.39351925991569       -1.04377599059407       -0.23068184169113
N            8.61713188363619       -0.66496150678384       -0.00870257775532
C            8.51203132877397        0.56834005838988        0.53709761981953
N            7.27556716461568        0.98129893875562        0.67044676270331
N            4.53387453174992       -1.09390591790580       -0.38518996892386
C            3.16562700583213       -1.08580850725567       -0.43823095445796
O            2.54949008844863       -2.03839791171718       -0.90511096951001
H            0.60991689300975        0.85670877845914       -0.53184901656545
H            0.57082256998783       -0.08381352644125        0.97574680259390
H            0.67375382318040       -0.91375298244805       -0.58741941841255
H            2.50239096251697        1.92202696650539        0.93230930735366
H            4.98336294490262        1.90460885772911        1.02025939637892
H            7.09215367015024       -1.98753192951078       -0.66335748624447
H            9.37135549801878        1.16180009947038        0.83077081490980
