18
 energy: -3.396569129139 gnorm: 0.000615528978 xtb: 6.5.0 (97a52f5)
C           -2.82402405381415        0.64365799809098       -0.04200470517393
N           -1.37218190935019        0.59342962220242       -0.01079526190087
C           -0.61361535238921        1.74706401731947        0.00639029452060
C            0.72932691505884        1.70267643363443        0.01985326681704
C            1.41669756793260        0.44235982623913        0.01602507292223
O            2.63836357766219        0.37489012362923        0.01599730784374
N            0.62829901056117       -0.71299042534347        0.00931252932159
C            1.27668729655071       -2.00299914801272        0.00522098413310
C           -0.76720471175571       -0.66918697796997       -0.00804217674733
O           -1.43142565306150       -1.69158535552611       -0.02074205528024
H           -3.18004499174435        1.67166960776418       -0.02293575454085
H           -3.22132930590495        0.11133136492269        0.82009609246259
H           -3.18165371247639        0.15777255898673       -0.94774871849664
H           -1.12959540399521        2.69191643454013        0.00663868753808
H            1.31747079694171        2.60239816627777        0.02936877598321
H            2.35805209797707       -1.87247015246472        0.00803271274525
H            0.98038739139565       -2.55596974896306       -0.88423627108174
H            0.97658044041172       -2.56377434532711        0.88846921893418
