24
 energy: -5.137188689830 gnorm: 0.000483580099 xtb: 6.5.0 (97a52f5)
C            2.19220270747305        0.04490556192725        0.23628138531301
N            0.73822448686964       -0.02176396687502        0.09714061298122
C           -0.09163025231507        1.06756157768477        0.00884676735917
C           -1.37558559854554        0.62116429783291       -0.17628812707452
C           -1.34368504985827       -0.77222953784026       -0.20479244363496
C           -0.03048355599781       -1.17424632222006       -0.02524734764884
C            0.45762695391592       -2.56055819760829        0.00647170921776
C            1.40451128508890       -2.96601063983584        0.94448153668001
C            1.85728528339511       -4.26436921542918        0.97271655527333
C            1.37756263518554       -5.20371542969158        0.06682968702857
C            1.84161119010169       -6.52852287564596        0.09518841378779
N            2.22811765801719       -7.62326068138353        0.11418585557096
C            0.42749368609731       -4.80440920806452       -0.86656353888157
C           -0.02669493248889       -3.50654986673138       -0.89552147179842
H            2.56872955199581        0.95744099959831       -0.22074098590975
H            2.65674387879278       -0.80554344265013       -0.25779142403056
H            2.46664855859039        0.04261236408760        1.28867849478089
H            0.23331556212260        2.09377520905060        0.06686118486686
H           -2.25336314761153        1.23852712712600       -0.28494340800005
H           -2.18961009104554       -1.42753975242052       -0.33237139871968
H            1.76591771539505       -2.25259855950763        1.66394746262863
H            2.58926941917492       -4.56908848437450        1.70104272396582
H            0.05148337096922       -5.52799264672362       -1.56949650800166
H           -0.75756131532352       -3.20549831030497       -1.62593573575293
