33
 energy: -7.166792374619 gnorm: 0.000896819055 xtb: 6.5.0 (97a52f5)
C           -2.01991237002504       -0.05793677383485        0.39605567265705
N           -0.57664871568021       -0.04750658460031        0.15980291362052
N            0.12562916760823        1.07271951584393        0.17096365255263
C            1.39382816869590        0.70527591527424       -0.01253798986861
C            2.51153833445144        1.65059288846086       -0.07212728729045
C            3.80870265477926        1.24186707885273       -0.37922261623676
C            4.83755737710178        2.15310234875903       -0.43525993981338
C            4.60868592922366        3.50204720169456       -0.18621760771934
C            5.65938225768798        4.43077381536036       -0.24603797752416
N            6.52807115873359        5.19920261927916       -0.29890822928515
C            3.31601208485775        3.91232908831539        0.12086521281901
C            2.28675024425074        3.00200606438144        0.17552792236363
C            1.48629919249971       -0.69715706133612       -0.13782075526042
C            0.21117724913553       -1.18608246614301       -0.03749867031044
C           -0.21231899819677       -2.59057124499060       -0.09447867534013
C            0.56374713804464       -3.58741431737951        0.49574408015860
C            0.17613390972556       -4.90770521497104        0.44097629289785
C           -0.99031920387493       -5.26032304972369       -0.20735080362907
C           -1.76691961818895       -4.28819776084623       -0.80483413688787
C           -1.38256328506243       -2.96679571476262       -0.75158433334012
H           -2.29599745130270        0.80993104475141        0.98920435803863
H           -2.31035737265666       -0.95572085689255        0.93612670962074
H           -2.55248523410514       -0.01600825383859       -0.55054399580268
H            4.00224245532070        0.20320895257382       -0.57950934142279
H            5.83632772313305        1.83073701777948       -0.67570076228122
H            3.13209551452786        4.95508237308907        0.31473205524712
H            1.28752666386342        3.32370405224200        0.41173502444079
H            2.37777102903968       -1.27913746483363       -0.29389570397497
H            1.46988203095645       -3.31039434818475        1.00629977460809
H            0.78383690646651       -5.66676720305270        0.90532254794120
H           -1.29213294917433       -6.29384089190671       -0.25005328972819
H           -2.67369059051219       -4.56440042498806       -1.31743332674808
H           -1.97531140132847       -2.21357034437213       -1.23927077449957
