36
 energy: -7.797663481823 gnorm: 0.000841507586 xtb: 6.5.0 (97a52f5)
C            1.25841310417978        0.20062388272392       -0.34085119598331
N            2.68934411738997        0.10837516785955       -0.09486545134222
N            3.21520802234704       -1.13715766662258       -0.15890787748919
C            4.50531401439710       -1.28751381803821        0.05880178671979
C            5.07166616232291       -2.62632291877620       -0.00270822950610
C            6.42617967391047       -2.87354645897178        0.22625815210886
C            6.93658159762291       -4.14836102891735        0.16161391206860
C            6.10519278964469       -5.21096706884039       -0.13344131306262
C            4.76118003687355       -4.99093159413090       -0.36287814155471
C            4.25032947829617       -3.71487068591774       -0.29943720999821
C            5.33235200545183       -0.14259107855558        0.37370596053074
N            6.60485269044238       -0.06084311625416        0.72206664534104
N            6.73999407032563        1.23422882535690        0.95315864451293
N            5.69553866085878        2.02387808533047        0.80906088858713
C            4.76569265061502        1.17046593557881        0.40850474306016
C            3.36604213440180        1.31409828999077        0.13626073093024
N            2.72006474076777        2.45602488812653        0.14705020578867
C            3.29989224400878        3.70969463735991        0.07468152783053
C            2.70926379219508        4.74573822423941        0.80063978937685
C            3.23017790385944        6.00818306306518        0.73772587371089
C            4.32691730118102        6.21081128091030       -0.06492373702802
C            4.83617270014382        5.14378845881464       -0.76796593349860
N            4.35363296613367        3.91679108974878       -0.73250502663272
H            0.84924489710802       -0.79283751264473       -0.50890354482401
H            1.07357229968210        0.81450867815691       -1.21936572475572
H            0.76295592950491        0.64825439253614        0.51751715367583
H            7.07307406649435       -2.04979866241184        0.45922578091423
H            7.98518271740875       -4.31906413660498        0.34172026421034
H            6.50490827793374       -6.21044864356286       -0.18336351286120
H            4.11195373155283       -5.81958592496308       -0.59297384038370
H            3.20440900629703       -3.53783954140325       -0.47806382444572
H            7.65013595154561        1.61714933135970        1.26174777253973
H            1.85121831991892        4.53100388553195        1.41283257053550
H            2.79514129881746        6.81844894773674        1.29974960707695
H            4.77568065744649        7.18712383594935       -0.14499369637417
H            5.69319998892023        5.29766895623990       -1.40633374978065
