32
 energy: -6.874010045351 gnorm: 0.000581850753 xtb: 6.5.0 (97a52f5)
C            2.08360845564388        1.61213366847408       -1.85399900246416
N            3.41354252812345        1.14089568531332       -1.49649379661344
N            3.65649577368258        0.28344770547522       -0.50944695458130
C            4.96842102396932        0.08933159333154       -0.48734736653854
C            5.65331528393153       -0.78178465431677        0.45737964975490
C            4.93001147917715       -1.48836678681175        1.41513238639596
C            5.57059838617279       -2.31295811283039        2.31241148733247
C            6.94464231969267       -2.44701782313223        2.27075660692182
C            7.67755781469730       -1.75365288591582        1.32793656981242
C            7.03823651266994       -0.93009213135427        0.43095006555423
C            5.60665239295763        0.86458972692342       -1.52180257854113
N            6.88774624801238        0.96443970693945       -1.84670798216998
C            7.07852973980585        1.80579836705852       -2.87613348145559
C            8.39675318821450        2.01666706540436       -3.33823994620639
C            8.66316362208100        2.85915271262219       -4.38045374839626
Cl          10.29401259924851        3.08327958047495       -4.90213404271140
C            7.62066021334141        3.54162248154723       -5.02265013768906
C            6.33586110852263        3.37108073698858       -4.61243163771663
C            6.00875490946374        2.50806090851163       -3.53583723425589
N            4.71919217888215        2.38645187283139       -3.18022241387494
C            4.57136206302475        1.55044897044985       -2.17173632464359
H            1.35985637021179        1.25479302997270       -1.12584572212861
H            1.81164822093858        1.23957032698149       -2.83857891172633
H            2.06707764063060        2.69919868486712       -1.86787363768369
H            3.86008536143305       -1.37834957250487        1.44177975920707
H            4.99897020170933       -2.85450364245076        3.04817573174551
H            7.44459379844317       -3.09283768672698        2.97384677333320
H            8.74963748483713       -1.85821489763158        1.29462917843559
H            7.60198577409633       -0.38855338877534       -0.30579982550672
H            9.20685694859317        1.50037677896153       -2.85703352933670
H            7.85814434859622        4.19931125648964       -5.84130299151856
H            5.53402600919692        3.89466072283392       -5.10244694272996
