106
 energy: -21.994136210169 gnorm: 0.000702451853 xtb: 6.5.0 (97a52f5)
C            1.32840860028141       -0.71957380447247        0.17969571006022
C            2.80426882137417       -0.40677481289740       -0.11183111194602
C            2.99878331560163        1.11447209938328       -0.14847992191916
C            3.67911793601536       -1.04339543961715        0.97546058607590
O            3.11850784952766       -0.98433094345909       -1.40989615204081
C            4.40961043465925       -0.79214610583076       -1.83824753866412
O            5.26927881773765       -0.19602819752407       -1.21056457991924
N            4.69902638245592       -1.33249437408398       -3.07999255471457
C            6.02960474193575       -1.25948432129597       -3.65205092488682
C            6.02607479143199       -1.30654201551405       -5.16687293725797
N            7.37847348732143       -1.16208550284818       -5.72221025592939
C            8.06349989843748        0.01407091328093       -5.86480898191491
C            9.27267044066261       -0.37760511561863       -6.36051645097087
C           10.42424270775490        0.52747995861063       -6.65892688453089
O           11.00662117772486        1.06481368627337       -5.47476257517273
C           12.03438227968872        1.98670405203791       -5.68924768123370
C           12.63852179389134        2.55517250160431       -4.56388409721527
C           13.64318596574497        3.47866523171970       -4.68915776129721
C           14.10198031045351        3.88846888943402       -5.93864613297886
C           15.16822563407537        4.87975282528775       -6.08264558746145
C           15.48492487835057        5.56087154754698       -7.27552933180433
C           16.59588701153931        6.35730479663545       -7.06644907569756
C           17.25913231318911        7.20267980872376       -8.06187653627179
C           18.55117606745430        7.67492440047671       -7.84524304160860
C           19.19079930215689        8.45831064137064       -8.77804204020137
C           18.54839655516178        8.79235472949591       -9.95305488613116
C           17.26639679051701        8.33707908486785      -10.18877080670571
C           16.62762055847103        7.54960656634769       -9.25633301856500
C           16.99373736312380        6.16958077890599       -5.69906336159385
N           16.08497523771033        5.28858946536827       -5.16604104585663
B           16.23258616297894        4.83018244729449       -3.71130018727801
F           15.13407251550016        5.25282377394634       -2.97515762247705
F           16.37588006945755        3.44985073962331       -3.71847903993761
N           17.47894279885383        5.47850480069154       -3.09743541943272
C           17.93941563759525        5.37038887473801       -1.82234317907833
C           17.37865246159701        4.62030657783848       -0.69776767858078
C           16.34545361282891        3.70159335435141       -0.86713624949593
C           15.81438092825905        3.01699887912705        0.19493033049682
C           16.29134058749583        3.21320316135696        1.49426380078405
O           15.69252559098014        2.47712533385213        2.51990981185306
C           16.20650363628203        2.73035090852014        3.82386279606339
C           15.49405317297243        1.90189884782411        4.88594321303562
C           16.00945983095700        2.15618127037417        6.28596029313395
S           15.11344590202229        1.12387646915965        7.51518256306340
O           13.69317393533146        1.53953358186548        7.34714999214888
O           15.43109348385071       -0.26692200969164        7.08777892277043
O           15.73822831950249        1.54180258295793        8.79797127889048
C           17.33120189235766        4.13208025477133        1.66874654307757
C           17.85737113630121        4.81522535910858        0.60046477508368
C           19.07300545407274        6.20569383547034       -1.75162799961858
C           19.26888050732994        6.81882285729889       -2.97521564844039
C           20.30972419278033        7.79655624905793       -3.30096724638729
C           21.42007267024001        7.97824609116694       -2.47631445006770
C           22.38267503655586        8.91384869750999       -2.78570533307887
C           22.25862758586713        9.69009179968786       -3.92080570291219
C           21.16673529138367        9.52617375996383       -4.74879281663643
C           20.20723269799400        8.58945016299068       -4.44124443416088
C           18.22887081754136        6.35160234874446       -3.84813340341023
N           18.05111310528049        6.73188312109013       -5.11372886458930
C           13.50508719723440        3.31469624384895       -7.06363588346642
C           12.50034310565059        2.38730390121538       -6.94572410525619
N            9.28204166457830       -1.72997001540617       -6.47675715533785
N            8.15315251174076       -2.18605618261792       -6.09406660472327
H            1.02108476442244       -0.31581862858730        1.14328670360090
H            1.16441021136544       -1.79554973050954        0.18792276924022
H            0.69164897353887       -0.29199381213172       -0.59261739353081
H            2.72048580271998        1.56976453215939        0.80075864586305
H            2.38906881321008        1.55572087730503       -0.93474732253702
H            4.03848239658711        1.36122686980806       -0.35382729260436
H            3.42557534397033       -0.65624780721786        1.96119351302474
H            4.73087315679658       -0.83722768184967        0.78749483484459
H            3.54673592979377       -2.12372236546420        0.98431695636095
H            4.00248593368853       -1.87331439885575       -3.58756624438414
H            6.63734651888232       -2.07390988791664       -3.24296839675114
H            6.49687284760025       -0.33121722404397       -3.30537661980362
H            5.39502409924474       -0.51208945597240       -5.57302496289500
H            5.60730707963290       -2.25115706302316       -5.52185390956186
H            7.72834869285718        1.00697362148423       -5.61892759551544
H           10.08329854607593        1.35771748433233       -7.28578890623165
H           11.19866503521927       -0.02417711247852       -7.20136500308047
H           12.29157996854171        2.25073738047410       -3.59224980452081
H           14.08948518235852        3.90624313276358       -3.81288494880410
H           14.95782564212477        5.46420970622261       -8.20777151840332
H           19.04747572170610        7.40816863197671       -6.93191420501320
H           20.19160720802595        8.81164052186993       -8.59095779752938
H           19.04585462501496        9.40818058620035      -10.68440638037955
H           16.76359420706753        8.59934327038157      -11.10534936219111
H           15.62603258369442        7.20450090704953       -9.44310682796715
H           15.96547392108537        3.52938894719601       -1.85438442998584
H           15.01546080821121        2.31159441870390        0.04821205175550
H           16.09028614295495        3.79938893750636        4.03467855920316
H           17.27831205055938        2.50239482200166        3.81888950435572
H           15.59149148589827        0.83768041329365        4.63843671166815
H           14.41739959428631        2.10701435268419        4.84039099347188
H           15.88756316190319        3.20253840591443        6.56526541327220
H           17.07269573927617        1.92864215643856        6.35962440650128
H           17.72578807398083        4.31059827502504        2.65237985052695
H           18.64883043208314        5.52348789065424        0.76784648120815
H           19.67870593106647        6.36568044116067       -0.87792999642096
H           21.52654965620248        7.37291417395208       -1.59351862356948
H           23.23594577731968        9.04083660853197       -2.13957767088230
H           23.01245741530235       10.42234579619172       -4.15979813279588
H           21.06582106294870       10.13103865250635       -5.63505584952489
H           19.35306795080863        8.46233228559598       -5.07803836841749
H           13.85102986326931        3.59810402998570       -8.04201102600285
H           12.07066667086286        1.96264761665599       -7.83446512321041
