37
 energy: -8.269372572866 gnorm: 0.000968305872 xtb: 6.5.0 (97a52f5)
C            2.15656373877652        2.17270607710864       -1.59852039738120
N            3.18253306582891        1.14827950647653       -1.43295189863446
N            3.26004598907038        0.35256356720869       -0.36223227711421
C            4.29325090909267       -0.42926849193080       -0.56730727796467
C            4.92300257139291       -0.14534722497362       -1.80073449668218
C            6.07148208988874       -0.69413424634143       -2.46991705068139
C            6.82808375940615       -1.74277625043418       -1.92661848178076
C            6.53697740044153       -2.34540330365222       -0.70289309269395
N            6.28052958172061       -2.83764929774122        0.31874217714424
C            7.90925262207502       -2.15265514829447       -2.70336107330963
C            8.90870456409353       -3.16915053168187       -2.49972648110539
C            9.12269316561798       -4.07582019464280       -1.46078260549602
C           10.18780788892604       -4.93576741731611       -1.54585582726683
C           11.04665892286381       -4.90850222513505       -2.64969537873755
C           10.85021361613600       -4.02403001841869       -3.68073408383798
C            9.76912324243935       -3.14253758033510       -3.61110249165710
N            9.31669349604923       -2.14417423111084       -4.48265727725215
C            9.91806869647188       -1.75266147671520       -5.74806085102018
C            8.18218072440383       -1.52762330728592       -3.93920848543782
N            7.47652114711046       -0.53512045819476       -4.47058130320209
C            6.42667888900013       -0.12432342823921       -3.73540749340755
C            5.62982165343607        0.94438836163047       -4.26046136467701
C            4.54848183196912        1.44564456696193       -3.60838677595316
C            4.19268054745680        0.89025630471979       -2.36296712186550
H            1.50858072445939        2.18388112372169       -0.72584319878684
H            1.55703587944540        1.96178675248665       -2.48088332688006
H            2.61959485758794        3.15061304939134       -1.70674411691898
H            4.61386120312890       -1.19160766576615        0.12287241237299
H            8.45605743126791       -4.08643675913323       -0.61745377636975
H           10.36742466888334       -5.64182017159730       -0.75193813423095
H           11.87669901928706       -5.59449771833677       -2.68941236399315
H           11.51070760160660       -4.00087784644678       -4.52863923546155
H           10.68779258645232       -2.46165181523925       -6.04386046894227
H           10.36375342982518       -0.76471286268891       -5.65244357953903
H            9.15374089058592       -1.72048751852903       -6.52172353865689
H            5.91895109522388        1.35362883841371       -5.21236272865469
H            3.96510049857815        2.24915904206069       -4.02104653392322
