39
 energy: -5.876316523997 gnorm: 0.000726490151 xtb: 6.5.0 (97a52f5)
F            0.88558735363356       -0.06611333215141        0.09328989858347
C            2.21997995446790        0.00924912036758        0.10986191334494
F            2.61686264003825        1.19163920292655       -0.36962975002893
F            2.67205615604310       -0.15900271156896        1.35607641982437
C            2.78059106603845       -1.12037648302480       -0.79183107467437
F            2.36598084510036       -2.29007003640695       -0.30155409952888
F            2.31433413905025       -0.93830473887498       -2.02870445760928
C            4.32911623414252       -1.09705446764520       -0.82067617414211
F            4.73735448050012        0.07872476561371       -1.30311390578515
F            4.79098936419997       -1.28325702040195        0.41782543036036
C            4.86763400026611       -2.22816762368668       -1.73281523866305
F            4.43987507886159       -3.40245185539685       -1.26444225597412
F            4.42640363702448       -2.02961579749118       -2.97669906871675
C            6.41737918518327       -2.22491146137941       -1.74203626865409
F            6.84597848044623       -1.03599817023705       -2.17165939724286
F            6.85975715532936       -2.46616509505110       -0.50604885093601
C            6.95404774224088       -3.32414897256669       -2.69388345031697
F            6.45820251713235       -4.50553417522743       -2.31847776040129
F            6.58215709740986       -3.03332270029123       -3.94263560421655
C            8.50033613446954       -3.38761554282453       -2.62651142580781
F            9.00924452043317       -2.18411846426603       -2.90028631805112
F            8.87099376901852       -3.79094901321959       -1.40890781561638
C            9.05882605605549       -4.39778877974263       -3.66140192287994
F            8.51072406087891       -5.59972763467540       -3.44080928996896
F            8.76206593626608       -3.96954343721262       -4.89537950480723
C           10.58109619404516       -4.50566248195568       -3.52197061951695
C           11.14389592217462       -5.49530079981778       -4.52893916164384
O           12.54943709715105       -5.59541685764554       -4.39191536850706
C           13.13611733572987       -6.48719410133399       -5.27580782608206
N           14.45185591762724       -6.63254168093436       -5.19125704966001
N           15.00949723168055       -7.44577932623325       -5.99803774477181
C           14.23470301683147       -8.07828021263546       -6.85166828747340
Cl          14.99661939243321       -9.17934618461775       -7.95612896906670
N           12.92843094147745       -7.94501534650471       -6.93746087308231
N           12.36450626041776       -7.13049761198536       -6.13548238806456
H           10.83720319034069       -4.82629013815495       -2.50226639724284
H           11.03730522122432       -3.51780529599361       -3.67584790799867
H           10.92429994985720       -5.17365549867221       -5.56124365955165
H           10.71426472477846       -6.49967003908187       -4.37472377543070
