46
 energy: -8.522860605595 gnorm: 0.000931278851 xtb: 6.5.0 (97a52f5)
F            0.87238196525317        0.00310840893019       -0.18096732964164
C            2.04315314212042        0.33620867320697       -0.74762779177105
F            2.95672003071534       -0.62478809086709       -0.53042783215573
F            1.87995894842225        0.53246154479948       -2.06540475577273
C            2.53477832887727        1.63249792748322       -0.12378567094890
C            3.82529918398410        1.72885787247875        0.34410477714968
C            4.28896274821430        2.91231727037756        0.90667055062502
N            5.58542485446407        3.01699874286999        1.36562699228697
N            5.95897325403878        4.03600686513999        1.95844069863921
C            7.26222447632840        4.15904146097533        2.39346052513936
C            7.65128215420143        5.24623282086025        3.16887908845255
C            8.94871821900319        5.38618798876693        3.61039847266146
C            9.90743596282444        4.40802773213121        3.27309078583704
C            9.52090335140163        3.30989790180659        2.47747189787156
C            8.21305939448104        3.20271312184239        2.05930982408355
C           10.51663388604723        2.25873040138663        2.07866175929048
C           11.96324947342020        2.77445653282584        2.11310591025049
C           12.24875859549231        3.49701486581342        3.42872396126027
N           11.22958964380118        4.52697559039752        3.72139808802257
C           11.64800826259083        5.61871660413851        4.62557574712091
C           10.82743811000499        6.88668107615029        4.39508371237766
C            9.32343726061288        6.57714620415012        4.44593693226590
C            3.42451197412608        3.99458773548634        0.98846311801648
C            2.13524536129299        3.90234555112688        0.52022559034055
C            1.21128454174811        5.10292995497634        0.62376709594241
F            1.91599415686191        6.14422822349845        1.09823887215094
F            0.72965896950308        5.38238802736746       -0.59797249731299
F            0.20647223643391        4.79920447261018        1.46066585166140
C            1.68960977036711        2.72075586116520       -0.03649183026130
H            4.47697627825208        0.87629025573174        0.27678515658118
H            6.91362952752479        5.98508865047750        3.42666580672688
H            7.90773458322656        2.36520863501036        1.45867152769207
H           10.41141105695587        1.40071429829814        2.75307445639547
H           10.26797079857995        1.88664557146876        1.07663693018981
H           12.12124780798716        3.46875266554882        1.27856802774389
H           12.67490085087045        1.95121141738326        1.95994462796860
H           13.23648906713698        3.96977134269306        3.41099962919801
H           12.25226147724077        2.78811647901620        4.26264746938739
H           12.71705804923222        5.81000508391249        4.48419435782680
H           11.52391669843299        5.26275353726061        5.65327586721975
H           11.07964250771678        7.30557987745515        3.41276156790391
H           11.09217213477620        7.65981910691690        5.13018836737119
H            8.74392809214241        7.44829542251293        4.11494671837997
H            9.01790452924323        6.38834829309790        5.48190529798858
H            3.76520246491714        4.92119035835667        1.41578803509593
H            0.67949581913877        2.64676766296030       -0.40241638725793
