49
 energy: -10.317962455316 gnorm: 0.000994702989 xtb: 6.5.0 (97a52f5)
F            1.14013931207416       -0.75841007349898       -0.09654737859555
C            2.47451159880539       -0.71755234091254        0.05967147765001
F            3.08831936259079       -1.08831981596697       -1.07683368484887
F            2.86284449290313        0.51750073101050        0.41877394804357
C            2.85624719205700       -1.70821383998301        1.15518425984890
C            2.54212028522376       -3.05203402273848        1.10952365822524
C            3.05183162703377       -3.59620885235117        2.30398304580971
N            3.62367679340572       -2.51328903770831        2.93289355917193
N            3.52553991718344       -1.37708979360737        2.28901333137498
B            4.18817118624140       -3.03499446806113        4.27430951625376
C            3.42954018009858       -2.33204776952378        5.48850618645986
C            3.74102838135041       -2.61011876896035        6.79871478075736
C            3.04244738755908       -1.99796758657131        7.81879328321762
C            2.03191538285929       -1.10534445081779        7.52414367189885
C            1.72506394282251       -0.82143153680551        6.20934047178108
C            2.42915376476228       -1.43563221370852        5.19628124484752
C            5.76108073024330       -2.79407471682689        4.30273362193919
C            6.58412843196736       -3.77271221676195        3.79849982621954
C            7.94969317059140       -3.58289565739453        3.76834995720019
C            8.48786151780232       -2.40373922562956        4.24166374345112
C            7.65978356581425       -1.41765420628261        4.73814888637723
C            6.29469348255272       -1.61363163879509        4.76405220777253
N            3.84726269563542       -4.54878386773594        4.21735599538628
C            4.12841179463242       -5.53679696978318        5.10957187548269
C            3.74631619094236       -6.81615192196121        4.86096030713412
C            3.04656636942313       -7.14500068864596        3.67115283347171
C            2.63562574042208       -8.46084387672501        3.38929074948510
C            1.96193095806843       -8.74796754981642        2.23492350884868
C            1.67163062697934       -7.73875494147757        1.31845828416381
C            2.05846202647108       -6.45027944920754        1.56269181884256
C            2.75235991380553       -6.12287948707550        2.73800326918927
C            3.18684710513542       -4.80193423289009        3.05195994934903
H            2.01576698492538       -3.55553120370358        0.31794048551465
H            4.54059396246960       -3.29492112651925        7.01873565557762
H            3.28637810826709       -2.21746619188000        8.84530348427160
H            1.48516451892149       -0.62771118984423        8.32056043775638
H            0.94096324041810       -0.12036981700719        5.97468916856878
H            2.21752283170866       -1.21215208756412        4.16678518650475
H            6.14644621859099       -4.68303274256148        3.42908278269362
H            8.59309503515870       -4.35285738738561        3.37525900770774
H            9.55458703061158       -2.25215617664117        4.22062605212687
H            8.07802621882842       -0.49397300236457        5.10327174144345
H            5.63691113393847       -0.84862166291358        5.13820098372352
H            4.67071214728823       -5.28176453081116        6.00116353197374
H            3.97278354852706       -7.59657806656687        5.56611514179850
H            2.85895925458145       -9.24114038719765        4.09616183082381
H            1.65239132539667       -9.75970475835647        2.03059652710741
H            1.13874106944480       -7.97781655824868        0.41274159664817
H            1.83151224344504       -5.67541862320785        0.85396817952874
