47
 energy: -10.127246355182 gnorm: 0.000691783942 xtb: 6.5.0 (97a52f5)
F            0.10203543082557        0.93372475103455        1.16111494442069
C            1.28445375585417        0.94570655371973        0.52296248436523
F            1.85035314841191       -0.27167098635630        0.56633594466880
F            1.12028934423449        1.33661105508423       -0.75238098639090
C            2.19284034154947        1.95396582005568        1.21889576316798
C            1.96191074130102        3.31536848741044        1.21434897116468
C            3.01169225569706        3.87600691268382        1.96648849163825
N            3.75775517170510        2.78007976972885        2.34273188632930
N            3.30618822407529        1.62512904693350        1.92321422970010
B            4.91533799575265        3.33444140168233        3.19616532068742
C            6.32848290273060        2.93367751556013        2.60214644833018
C            6.96739945666719        3.13377579766932        1.40627108886866
C            8.24265925871362        2.63336783133960        1.22886235422631
C            8.86880977668039        1.93844203560887        2.24829090169843
C            8.22843805500284        1.73732563000336        3.45321663919218
C            6.94579559589453        2.23921910654814        3.63370894464278
C            6.09648597952008        2.13829198736994        4.83637939932013
C            6.39540106196229        1.51708162078394        6.04247559963682
C            5.46348552125850        1.53339392825956        7.05933257176375
C            4.24330601982742        2.16142470490270        6.88277322524170
C            3.94390245113403        2.77927465505701        5.68425044538557
C            4.86800247307363        2.76253772773662        4.67260601043385
N            4.68002142553793        4.85997875609852        3.16967702658081
C            5.40369994165036        5.85603393096509        3.74502871240631
C            5.00905801310216        7.14911438645442        3.61361997101763
C            3.83952957950268        7.47806291623831        2.87860144171224
C            3.40363477525710        8.80784336187719        2.73126612648879
C            2.27140881910042        9.09543469553985        2.02111293895399
C            1.52997179082898        8.07340361978749        1.43093998512328
C            1.92672308202696        6.77094831514670        1.55524280747817
C            3.08421617736895        6.44250874706359        2.27777763118147
C            3.54947364063715        5.10610820722692        2.45042601368004
H            1.14605425643272        3.81998999035286        0.72746011515118
H            6.46837372277173        3.67731091746442        0.62302243835524
H            8.75203407623542        2.78531130063184        0.29133053258567
H            9.86361536627676        1.55153234914546        2.10016898348403
H            8.71103296306909        1.19857376191112        4.24931006683587
H            7.34546104045898        1.03054961400300        6.17479762711972
H            5.68757872011451        1.05375752343357        7.99798699573398
H            3.52228896242784        2.16914540533287        7.68368455560983
H            2.99993172241747        3.27281654317129        5.53162677793380
H            6.28401222720095        5.58785708192361        4.30107816626901
H            5.57960250427094        7.93964249641753        4.06877092039495
H            3.97390121232872        9.59853160957833        3.18739056669164
H            1.94768223361858       10.11793248507300        1.91640891356222
H            0.63825622140172        8.31314551560162        0.87511400784351
H            1.35050256417637        5.98615111678064        1.10084599929266
