71
 energy: -12.433266308088 gnorm: 0.000499324061 xtb: 6.5.0 (97a52f5)
C            1.17004800084419        0.49904672253731        0.65697066590989
C            2.64116658150434        0.39783502273279        0.22675400609077
C            2.72875527433941        0.52895354465210       -1.29818340332818
C            3.44372098358722        1.50905605733122        0.91131971618752
O            3.13067606459932       -0.90143668115247        0.66051822333410
C            4.46055966329973       -1.14550236952684        0.39813966876475
O            5.19759751945171       -0.41726795251735       -0.24304158070207
C            4.98184304700305       -2.42459645008622        0.95253390559337
C            4.49039304273050       -3.71251006695842        0.70500817384710
C            3.39486910156982       -4.09685805971903       -0.14467490220521
C            2.82452403828359       -3.31003722109927       -1.07390786917783
C            1.72552313492498       -3.70006670201612       -1.93700603617502
C            1.43736386470497       -2.94809002801389       -3.07853696187743
C            0.39526595532261       -3.29309988648956       -3.90917635115573
C           -0.38627604462597       -4.39393934369457       -3.61949945047805
C           -0.12104195999794       -5.14890542705340       -2.49418099947011
C            0.92133632771777       -4.80899965764564       -1.66116703963847
O            5.24642120741157       -4.63425166204182        1.39560603610698
C            6.21135340840711       -3.94822796402430        2.07332654072196
N            7.14415740764697       -4.60212090216325        2.89252779045491
C            7.48196875423036       -4.25011968840950        4.29593867113608
C            8.92904738048148       -3.74496082515807        4.42746663214702
C            9.30236092011488       -3.52298229038221        5.90498403933905
C            8.31270175415519       -2.56409333476920        6.59756739623676
C            6.85213153554110       -3.03141185577562        6.42735757807593
C            6.50533647503165       -3.25029731725435        4.94322737464907
C            6.08460008681119       -2.56820993533777        1.81506548101516
C            6.95978039520370       -1.46822788646798        2.28175829665519
O            8.16992084671404       -1.61826692735493        2.29566684026273
O            6.30246787653568       -0.32527861837681        2.68618741606326
C            7.16454551256618        0.80510802482150        2.99690331391849
C            8.08025117194251        0.47726628998081        4.18068524313724
C            7.98629094859297        1.18319593230719        1.75870801319758
C            6.26363850477679        1.98669816999376        3.38687088767283
H            0.74032658690246        1.45782570751362        0.37071828000993
H            1.08346691943820        0.39011876892418        1.73644337306397
H            0.58427799213727       -0.29310562349618        0.19437346113936
H            2.37240976423312        1.50366958541399       -1.62800137930907
H            2.12380988647859       -0.23443884562563       -1.78227299724946
H            3.75659002624918        0.41071557846015       -1.63435656779087
H            3.06336246640285        2.49380621665584        0.64417676891443
H            4.48941035203380        1.45332261760495        0.61709654957959
H            3.39139770636468        1.39944601688893        1.99281749894117
H            3.06648513102061       -5.11527372802745       -0.05113799388333
H            3.22297457137615       -2.32234000052430       -1.21427122198828
H            2.05186582795470       -2.09613716138850       -3.31282324883377
H            0.18956174381374       -2.70433314876399       -4.78814263801853
H           -1.20257338886936       -4.66221374677972       -4.26987042931555
H           -0.73457477672535       -6.00496792591331       -2.26532228656960
H            1.10570457841262       -5.39165778058628       -0.77613538584590
H            7.15754774315167       -5.60936783330632        2.77589091991048
H            7.41368536907476       -5.17590512857172        4.89281061685815
H            9.02187492684016       -2.80807131499513        3.87080682118682
H            9.61721708709642       -4.44535853704180        3.93853260699180
H           10.33057503930160       -3.14507531920500        5.98939210982025
H            9.30176830311009       -4.48645598566789        6.42884940558995
H            8.42726499450831       -1.55972492605861        6.17633345661139
H            8.56030402119047       -2.46050817033244        7.66300698119578
H            6.15891415085224       -2.31092064219548        6.88288398098057
H            6.70310837906628       -3.96795612321215        6.97810886882428
H            6.56927225509274       -2.29678535366085        4.41252460433133
H            5.47161955976250       -3.59386444850879        4.81371961372878
H            8.73148713682332       -0.35971058671982        3.94129305292482
H            7.48665649651443        0.21086574167867        5.05279889457202
H            8.70626217868874        1.32976847547456        4.44003407092257
H            8.64537143594964        0.36512366220361        1.47580096203906
H            8.59483490767686        2.06706229357839        1.94353734105156
H            7.32703658853814        1.38572837296974        0.91661364300385
H            5.62474597464268        1.71501724553159        4.22521364632289
H            5.62358028907747        2.27040074252057        2.55509337771232
H            6.85522899439221        2.85542059428591        3.67198592628839
