52
 energy: -11.112084721376 gnorm: 0.000441281089 xtb: 6.5.0 (97a52f5)
F            1.13071565154576       -0.28784822400872       -0.02356105077165
C            2.42547072805026        0.07577719696112        0.00341594667837
F            3.20533445432470       -0.95185238247519       -0.37866682179498
F            2.62775724028670        1.13567420017551       -0.80007480513413
C            2.78319983357822        0.47244932868437        1.43285881533974
C            3.54220545037909       -0.36302344461416        2.22668911913666
C            3.84725631372242       -0.00661551534433        3.52079283551900
C            3.39249981356779        1.19787611370544        4.05208153678800
C            3.71432646606828        1.58231585778219        5.44534420147966
C            5.01584748678430        1.48269663768279        5.93226828274082
C            5.31417026467689        1.83868899811907        7.22606230987507
C            4.32184632870998        2.30414121867966        8.08697874514085
C            4.64219990366836        2.68686234969002        9.47897188532021
C            3.82671520489744        2.33174149332227       10.53801247237310
C            4.15710311473658        2.69732097005540       11.83337003519884
C            3.28698662394545        2.29938406385081       12.96192956979258
C            2.56456159974991        1.11134374077174       12.90318145073012
C            1.76346553576084        0.74829854146117       13.95224852769465
C            1.70909396440559        1.58506379044986       15.03918893267181
C            2.45779738255210        2.73607737281475       15.02177146214695
N            3.23757365444451        3.11148494564669       14.02310649351465
N            5.24678096913486        3.41962482149453       12.11749630277919
C            6.03842507498200        3.78091210225943       11.10134899550561
C            7.23661595764023        4.58783869733909       11.42099553026029
C            7.72782582822335        5.50615211318719       10.49780821593205
C            8.83345160688279        6.25377972054448       10.80212894485379
C            9.41918323720798        6.06505789614394       12.02924406293055
C            8.86870196476118        5.14422320974813       12.88643018818944
N            7.80362889492147        4.40917708543821       12.61872226224524
C            5.77141767976379        3.42236107297503        9.78956092184113
C            3.01959817492754        2.40123208363693        7.60005510732236
C            2.72254026656300        2.05002030423848        6.30474104539389
C            2.62407238207373        2.02938337257231        3.24082118254059
C            2.32462014524535        1.66766681754707        1.94688105754892
H            3.89061955199721       -1.29544434295911        1.81588654002772
H            4.43067149761056       -0.66607413331952        4.13983425476846
H            5.79341560771487        1.13075194123646        5.27644925434986
H            6.32250346050466        1.74669931833613        7.59095381627226
H            2.92962052935836        1.77277954299367       10.34685224222961
H            2.65601520736402        0.46741201444189       12.04619041885432
H            1.19765613374050       -0.16886350275498       13.92836290347668
H            1.09519082461604        1.34026368300533       15.89053801392145
H            2.42425369294436        3.39938161572737       15.87334222023496
H            7.22343584769790        5.64713649270726        9.55805496305620
H            9.22863463523782        6.97268080485748       10.10293928424751
H           10.29011615486179        6.63198954622054       12.31504651506768
H            9.31994711727748        4.99135097306121       13.85557302418321
H            6.44278820997824        3.71274311742969        9.00297151313717
H            2.24453644101771        2.77065511010735        8.24899562787454
H            1.71108454678968        2.12362337751187        5.94406625168367
H            2.27431958237464        2.96832594531727        3.63387194635448
H            1.73303176073664        2.31146194553989        1.31806744847485
