88
 energy: -19.350265446407 gnorm: 0.000630591632 xtb: 6.5.0 (97a52f5)
F            2.04709408280992       -0.92027304014189       -0.03750207007829
C            2.78515869860289        0.06947402969697       -0.57019627988726
F            3.93354685373831       -0.42401055899556       -1.06583884631603
F            2.09318437770025        0.69437140236187       -1.53894393927879
C            3.12240478524693        1.08582312854270        0.51440772776463
C            3.96114444794487        2.14289446612367        0.22057273450939
C            4.27209442205033        3.07203708805843        1.18618423709787
C            3.74436160003223        2.95489695337405        2.46687264968679
C            4.05629195949731        3.92276054686493        3.50902142489482
N            4.81682137234366        5.00883562996029        3.36727897519812
N            4.86000667666158        5.62505314575820        4.50778620052709
C            4.12786237815032        4.93605104430565        5.38686045058701
C            3.93805964294262        5.32200307124322        6.77571640620360
C            4.51973875349493        6.48510719090597        7.25202980323355
C            4.36807798017804        6.88881908234374        8.56811979399140
C            5.01887197383181        8.10374227803587        9.03117107693075
N            5.71670369570186        8.93072297672597        8.24835620415091
N            6.16711102488712        9.90283243497830        8.97924986441006
C            5.76090792348792        9.70385776902239       10.23370607161409
C            6.05577548629581       10.55953705021417       11.37411305874635
C            6.82828894333692       11.70709194421335       11.23866878820118
C            7.09633433393402       12.49460218821483       12.33420954144697
C            6.60124821808480       12.15246049759146       13.57780963415045
C            6.89039557936490       13.01885697889431       14.79803333679993
F            7.67826809921168       14.04682926983805       14.43656097588439
F            5.72265859050032       13.47718765824917       15.28188151383643
F            7.50945503817391       12.26252193172408       15.72127746166668
C            5.83258612001818       11.01411362335427       13.71878710153472
C            5.56096066095416       10.22260460963508       12.62781350756453
O            5.02357614352342        8.56777686155658       10.30518190129956
C            3.59561280928148        6.09978866045754        9.44327738371205
N            3.39237510907422        6.49292509748349       10.81323529386142
C            2.43910785781721        7.42428172080341       11.27049165071265
C            1.43901002835018        8.10982218527420       10.58508247695992
C            0.65303447227258        8.99387300192829       11.28100710647442
C            0.84654493762774        9.20780213263429       12.64820483213993
C            1.83173037248611        8.54306833490718       13.33657126512998
C            2.63985149009134        7.64194032771751       12.64286827917941
C            3.75906218792812        6.82601798833519       13.04649543299172
C            4.41232905054216        6.66088493180751       14.26798265131876
C            5.49494091707645        5.81774348484505       14.32610788017131
C            5.94041523219060        5.13768231198900       13.18957627198249
C            5.30767176221626        5.28926110932736       11.98112789442271
C            4.20542541754522        6.13729118712205       11.90739696136799
C            3.01731606080541        4.93410998181936        8.96871766448032
C            3.17362059739766        4.52811133975927        7.65365111452268
N            2.56879034478143        3.29979397871245        7.20854250544383
C            1.33395179285595        3.17438195283210        6.54176567935011
C            0.37194288190375        4.13059150808710        6.22568963153959
C           -0.74734507450839        3.73381531789049        5.53762171269478
C           -0.92490395497250        2.40071946147868        5.15837443663591
C            0.01756818237605        1.44764500296451        5.45776717782300
C            1.16235126679932        1.83582899637306        6.15404404399356
C            2.33355862741227        1.11152529527107        6.58423374964907
C            2.71909865968319       -0.22260169683459        6.45048065929724
C            3.94053325562353       -0.60734595426233        6.94698568201864
C            4.78659093350822        0.31256262894505        7.57182646552127
C            4.42109012191738        1.62798795802355        7.71172844805167
C            3.18262738808427        2.03194171709007        7.21889352142111
O            3.60042638329202        3.84224463346121        4.78387947355892
C            2.89975501970447        1.89010270215111        2.75410291963415
C            2.59245927027249        0.96514284319838        1.78431641578512
H            4.36585121709284        2.22514853987926       -0.77441191906931
H            4.92526178695038        3.89774573860789        0.96250179431024
H            5.10850466461508        7.08753922818635        6.58405765998517
H            7.21243340076869       11.96821669393912       10.26776968164526
H            7.69496354023685       13.38510189167406       12.23951667512682
H            5.45346890034390       10.75946887044377       14.69426248384034
H            4.96160488906283        9.33344870638315       12.72521659743268
H            1.30438497427319        7.94405316937696        9.53105409255144
H           -0.12437153466273        9.53363431546473       10.76552254818038
H            0.21401752527003        9.90771382714526       13.16923309453863
H            1.98752363385762        8.70667692164007       14.38815372518445
H            4.06653469789788        7.18890865584717       15.13889743430110
H            6.01098481606342        5.67935472676593       15.26202795928995
H            6.79529298622172        4.48570740052427       13.26397944145840
H            5.64797078604795        4.77833087441658       11.09817853512563
H            2.43133618489657        4.33102269950493        9.63644359389434
H            0.52298581224324        5.15528253060790        6.51508215000935
H           -1.50124811124115        4.46118261132000        5.28462347449373
H           -1.81479181831572        2.11747083508216        4.62049779721113
H           -0.11238922527398        0.42051426780238        5.16628103387695
H            2.06607899490891       -0.92525121690616        5.96394523642651
H            4.25373852950499       -1.63406006136512        6.85114299209051
H            5.74136616316601       -0.01640105175459        7.94809694834131
H            5.06788228257552        2.34615034843954        8.18325396377103
H            2.49269179133832        1.80665024603158        3.74736479563476
H            1.93851984804111        0.13668783669234        1.99855222221423
