27
 energy: -5.321679072142 gnorm: 0.000536210711 xtb: 6.5.0 (97a52f5)
F            1.08840329360288       -0.05168480656429       -0.06997250121024
C            2.42444611052686       -0.03399584061315        0.07979453623007
F            2.98123356198289        0.79770730962419       -0.81765121871640
F            2.74605502219885        0.34879173802246        1.32801907189109
C            2.97545486260045       -1.43529525763942       -0.15460680115662
C            2.14697357949249       -2.45663347591068       -0.59478613833797
C            2.64380449305608       -3.71438833355275       -0.80760171830554
C            4.01477743389864       -3.99813386558705       -0.58243923809066
C            4.52961802145716       -5.26946560571363       -0.78716241056033
P            3.57192275245021       -6.62406952214644       -1.33139431679646
C            4.70855859795498       -7.94698223926555       -1.39808394889072
C            4.46082456521664       -9.24866129726636       -1.76345933484046
C            5.50177818123447      -10.16145820132052       -1.75016485751386
C            6.77284895031186       -9.76381290999830       -1.37306685546098
C            7.01841957744536       -8.45542516807703       -1.00663981340055
C            5.97924459093147       -7.53007667074546       -1.01680500883131
S            6.17262008630719       -5.79629149126283       -0.56015239438758
C            4.84008781961777       -2.93494497809680       -0.13669650864395
C            4.32049766657615       -1.68509115113636        0.06902547798739
H            1.10545580321218       -2.24052479999906       -0.76301267604955
H            1.99634994733568       -4.50329893038143       -1.14728785074056
H            3.46552006118993       -9.54285910757687       -2.05383717287501
H            5.32073892938003      -11.18492875670152       -2.03488093782261
H            7.57731330031085      -10.48084391577597       -1.36521533928320
H            8.00389267563219       -8.13843787470558       -0.71214061183634
H            5.88388201235750       -3.12635540439927        0.03862571976968
H            4.94696810371935       -0.87768944321175        0.40890284787151
