57
 energy: -12.086957237612 gnorm: 0.000616700882 xtb: 6.5.0 (97a52f5)
F            1.20770251112798        0.52549258304212       -0.21401945320529
C            2.31770270901232       -0.16386988170673        0.10748033045146
F            3.32516546705615        0.68324262859486        0.38576085212606
F            2.07911078768659       -0.96431002791951        1.16202135389185
C            2.72782347561926       -1.03643638464037       -1.07523550628145
C            1.86346737184474       -1.24657180831646       -2.13009477695159
C            2.23413650816178       -2.04813802932059       -3.18542105319448
C            3.48282223177783       -2.66992833810757       -3.20844888322071
C            3.84449414072555       -3.51589137359660       -4.33722435096850
C            4.88145771590211       -4.36743563213257       -4.36246694623878
C            5.24973948054571       -5.21232490175105       -5.48647518002182
C            6.20603324647625       -6.21615161690646       -5.30838628427412
C            6.57677832173660       -7.03291387515022       -6.34756808321845
C            6.00985340788379       -6.87522025318585       -7.60847129939554
C            6.39140833322005       -7.73653199140877       -8.71685283092943
N            7.26203035011631       -8.74845848211284       -8.63443943137631
N            7.35791910746771       -9.29834520029500       -9.80302735781741
C            6.54916961876987       -8.64351782108830      -10.64308534752287
C            6.37180258762565       -8.96679987944538      -12.05071809064757
C            7.02034539062004      -10.05468835924511      -12.62652841564895
C            6.83870138518174      -10.34972300948062      -13.95484044084131
C            6.00676160978009       -9.57113865578483      -14.76075478124003
C            5.82974609293037       -9.90820511205222      -16.16841931972606
C            5.11173216298390       -9.20990068826366      -17.08823609221405
C            5.11878155376633       -9.79187898909175      -18.40323438110390
C            4.47533824161678       -9.30943473657533      -19.55534559032407
C            4.59384617436673      -10.00474235150465      -20.73061660948540
C            5.34391184719374      -11.17967499275188      -20.79187253586165
C            5.97957048228057      -11.66359655784449      -19.67492673273733
C            5.86716957198895      -10.96847800512368      -18.47800235770553
S            6.54895081599215      -11.32757373412931      -16.91272619430137
C            5.36051075033979       -8.48003110148043      -14.17528986098024
C            5.53980911686302       -8.18587975269051      -12.84564144867355
O            5.91585829763237       -7.63603421732953       -9.98629267149322
C            5.06367476259541       -5.87346115058273       -7.79682029368453
C            4.68931371236003       -5.05733933084571       -6.75769589062865
C            4.34616381873633       -2.44379233271708       -2.13560394391472
C            3.96864926986413       -1.63908583244587       -1.08463329214453
H            0.89748943266303       -0.77113862811021       -2.11305819678633
H            1.55327937309415       -2.20807394711094       -4.00374340947197
H            3.20281903665392       -3.45974829923635       -5.19708512563840
H            5.48396061614399       -4.46704122692278       -3.47841788183391
H            6.65104758146324       -6.34841378202951       -4.33724373957872
H            7.31057088437524       -7.80606802768949       -6.20055009913589
H            7.66405532336097      -10.66119768974468      -12.01380234012318
H            7.34154319456624      -11.19383624283532      -14.39280040908464
H            4.58210040123276       -8.29832643618836      -16.87071585438239
H            3.89969155736267       -8.40217256360319      -19.50195408852479
H            4.10311877684916       -9.64078555145207      -21.61824901307455
H            5.42475424831042      -11.71170732008738      -21.72546801921662
H            6.56054104931607      -12.56882023023059      -19.71043210856098
H            4.71086399258338       -7.86533214095227      -14.77209297156003
H            5.03868344964844       -7.34520121760759      -12.39698437850682
H            4.63123208132649       -5.75004045476484       -8.77503353703664
H            3.96747632942640       -4.27994746271492       -6.93185909754632
H            5.32524027811265       -2.88848193188938       -2.13447310226520
H            4.63659996364791       -1.46408765146651       -0.25801343615807
