45
 energy: -9.244551714973 gnorm: 0.000713683326 xtb: 6.5.0 (97a52f5)
C            1.70045722373470        1.21250720848352        0.11522768594564
C            3.20060617177840        1.38673395103488        0.39756208048587
C            3.43166801903507        2.74629689050838        1.06843547988487
C            3.67772612485560        0.24435543941954        1.30227404281034
O            3.89038019002981        1.33427514994232       -0.88374696524480
C            5.25137015974068        1.47029027462671       -0.81731654552588
O            5.89510167819194        1.63883411719901        0.19800415210232
N            5.91784115544479        1.39753413221071       -2.08003692437994
C            5.31411265809779        1.18461415581198       -3.30624423400275
C            6.26338531561111        1.17205001718529       -4.28649787261849
C            7.52415204598005        1.38357546429719       -3.67442075872350
C            8.84535076437943        1.46023507166010       -4.19580869571794
C            9.13805109420653        1.32602690400263       -5.57817078904739
C           10.41123789845125        1.40546316890690       -6.03485678666804
C           11.50062844058453        1.62712532359365       -5.14319644938097
C           12.82454096114981        1.71368512647063       -5.58931402867580
C           13.85371686903912        1.92831621035154       -4.70123264871139
C           13.60297492077155        2.06247563205690       -3.34845667179662
C           12.30394845067485        1.98444082913822       -2.85171080694729
C           12.01198231007383        2.11820090983227       -1.45570732440359
C           10.74664969141621        2.03925541794333       -0.99233411644079
C            9.64185690340276        1.81875309824787       -1.87485890929572
C            8.34022482242324        1.73781887529193       -1.39995245673775
C            7.29534263556660        1.52395235283561       -2.29174166320772
C            9.89775026415306        1.68028604265009       -3.27890895712816
C           11.23616663924823        1.76401239322043       -3.75870450554481
H            1.11924959713493        1.24066641956571        1.03578508328243
H            1.51604581866981        0.26068702095763       -0.37946427103982
H            1.34418385935143        2.00413368463328       -0.54132197934961
H            2.88409448208525        2.81925501918486        2.00679684028141
H            3.10398664225676        3.55260105249184        0.41500937082409
H            4.48901140040148        2.89406886618621        1.27771840223586
H            3.13736513429043        0.23950788272869        2.24765496900112
H            4.73958784390122        0.34497455642824        1.51669359363654
H            3.52482782904841       -0.71589174961464        0.81330149445394
H            4.25268243134367        1.04997582911511       -3.43669446338416
H            6.09047429468946        1.02518164659223       -5.33896641372433
H            8.32664736995524        1.15906722129450       -6.26452902763071
H           10.61742884400926        1.30165520989577       -7.08594597181068
H           13.02961087956890        1.61054394907773       -6.64071390985721
H           14.86650934204409        1.99236195715766       -5.06397583482484
H           14.41569081107402        2.23021213242977       -2.66321615594471
H           12.82830980085140        2.28410388572144       -0.77438421715764
H           10.54894385345030        2.14231685872852        0.06055616537805
H            8.12602635784383        1.83677440052090       -0.35289900535025
