45
 energy: -9.336109191143 gnorm: 0.000550108415 xtb: 6.5.0 (97a52f5)
F            1.03028725375422        0.17896339095791       -0.31310167616839
C            2.32563945653595        0.04990833869886        0.02972314336612
F            3.07427474448108        0.94541704030674       -0.64129530441465
F            2.47511770723628        0.21993187410880        1.35631832271396
C            2.80464336706484       -1.35350286196404       -0.33282851193985
C            1.90459189535629       -2.34037309236037       -0.68319030666460
C            2.34401512180274       -3.60357751412840       -1.00175917711526
C            3.70597766186763       -3.92143841890032       -0.96462259863987
C            4.14039124972110       -5.25255776727793       -1.32948409057457
C            5.29858268427756       -5.87966472912937       -0.94650808367751
C            6.23880730228415       -5.46835348127205        0.05528807090532
C            7.19621221874535       -6.43518257529869        0.18994452696859
C            8.33772459146343       -6.40567007992872        1.11749707893153
C            8.31430079773877       -5.60839250529939        2.26111178512105
C            9.38690558157208       -5.58136857168890        3.12452308856258
C           10.50502920492779       -6.34710600971728        2.86505478120215
C           10.54710232134395       -7.14268349769225        1.73859770476023
C            9.47572272344070       -7.17339011697361        0.87394276725064
C            6.88670840723630       -7.49610006407967       -0.72528677042666
C            5.75483241102778       -7.18630578878343       -1.41855943502204
C            5.13100746644976       -8.01958981588264       -2.46048572291330
C            5.05292698669391       -9.40392331459183       -2.30992152439997
C            4.47888340466238      -10.18764904300769       -3.28555806595504
C            3.97572000458044       -9.60816509583349       -4.43256685720782
C            4.05141418988547       -8.24085848144679       -4.60354333562195
C            4.62451300740985       -7.45354712037207       -3.63032673202341
C            4.60311491567057       -2.90356603590873       -0.62442691245433
C            4.15399221002654       -1.64309894163170       -0.30811546722800
H            0.85504388936136       -2.10162687053498       -0.70629296711357
H            1.63601490724886       -4.36696078734822       -1.27502975581453
H            3.46425662057665       -5.81624564570687       -1.94757859693451
H            6.17306322457270       -4.57884730758834        0.65414984390300
H            7.44030693254173       -5.01854161743566        2.47448930253474
H            9.35232815313357       -4.96185213451164        4.00569130075100
H           11.34411916496997       -6.32412761221440        3.54092164562204
H           11.42120120602870       -7.73903702776806        1.53401230523514
H            9.51798833431679       -7.78512534902637       -0.01004646995532
H            7.45902286249208       -8.39859936372210       -0.84806635308306
H            5.43902282584070       -9.85459661741136       -1.41213612603801
H            4.42183984143437      -11.25558650914828       -3.15327344182607
H            3.52740462454239      -10.22307646314322       -5.19563105826427
H            3.66571822674610       -7.78952757493379       -5.50292829132153
H            4.71021487000190       -6.39115797981277       -3.77842829090634
H            5.65994712285794       -3.09511144970493       -0.66561451160487
H            4.84772830607364       -0.86134541090277       -0.04897923252142
