43
 energy: -8.110756089382 gnorm: 0.000741169470 xtb: 6.5.0 (97a52f5)
F            2.18706408761490        1.10165055267855        0.49492592326556
C            3.36631328628011        0.48077907065154        0.31047616659495
F            4.38139429822822        1.33762418922575        0.52582412027070
F            3.46895490509304       -0.57663891866593        1.13613540240937
C            3.42708529370978       -0.02035386507217       -1.12920290668620
C            2.55369049710482       -1.00550537674983       -1.54616692850763
C            2.59002498706645       -1.46473114838630       -2.84241221354624
C            3.50731322255707       -0.94208293533903       -3.74919746528515
N            3.54821351987172       -1.40136308240871       -5.05449793773272
N            4.40978834582306       -0.99122244419308       -5.84469738135188
C            4.45284834263072       -1.44432562117802       -7.14911834769120
C            5.45117769149326       -1.01200590343666       -8.01643342294967
C            5.51160814584732       -1.45386355045577       -9.31965804159228
C            4.54530627472128       -2.36642158495335       -9.79104165564286
C            3.52618799954443       -2.80117205901297       -8.91885537304870
C            3.49996438141675       -2.33837494999783       -7.62181883690695
C            2.47136365755374       -3.76272145579782       -9.38538840881747
C            2.28762848763293       -3.74631094077223      -10.90953401635522
C            3.63658492150934       -3.83626310978838      -11.62018153791364
N            4.59613563104239       -2.83434817274455      -11.11073849287361
C            5.68438465751744       -2.44956321022787      -12.03360843737052
C            6.24644586450886       -1.06725346620397      -11.70778933055287
C            6.60848117755884       -0.96168850367147      -10.21958607725733
C            4.38196011828302        0.04970355721830       -3.32025420194191
C            4.33941009286534        0.50529430638513       -2.02317948836807
H            1.84668830933676       -1.40686274918667       -0.83979486192291
H            1.91229354823043       -2.23285104488136       -3.17256110828944
H            6.18857351776769       -0.32090924672205       -7.65074366999807
H            2.72951098495819       -2.66897553911846       -6.95023328755296
H            2.74521798628204       -4.77132434471081       -9.05492226585821
H            1.52371839682311       -3.53065393601600       -8.88350896857468
H            1.78420226713509       -2.81815225615001      -11.20573938957992
H            1.62533267307181       -4.56198502448302      -11.23073610032670
H            3.52139715586325       -3.70084502714350      -12.70061601985672
H            4.08096195981762       -4.82547068972018      -11.47401050226924
H            5.30908583369868       -2.48835350505153      -13.06154734517956
H            6.46807044733105       -3.20953503120794      -11.95717126562892
H            5.49814917393013       -0.30480048146974      -11.95567177650460
H            7.11944315453984       -0.84603302750047      -12.33718629990975
H            6.85244993103571        0.07559463688027       -9.95825139646039
H            7.51580186828844       -1.54214737199985      -10.01619868777641
H            5.09033782983879        0.45260141512746       -4.02236218458473
H            5.01486507457682        1.27388184624872       -1.68695597987548
