40
 energy: -8.018863758522 gnorm: 0.000832616097 xtb: 6.5.0 (97a52f5)
F           -0.98579278586414       -0.34596923260444       -2.02104759295891
C            0.11558624112199       -0.97974285137795       -1.58714934003665
F            0.20535620068522       -0.88249903802051       -0.25069908135957
F            0.08377671961151       -2.27051823211941       -1.95693899279661
C            1.33341153252498       -0.30917059338384       -2.20312644777664
C            2.19072593214239       -1.01145944880158       -3.02691652972429
C            3.28802084931294       -0.38783431349718       -3.57499643674822
C            3.53504961941799        0.94420390040798       -3.30307540291307
B            4.79791293762221        1.61971756095305       -3.93437112238820
C            4.70412327409205        2.32539074855882       -5.27387116526566
C            3.49724447492315        2.52132250171537       -5.94182379719257
C            3.47427288932538        3.15625394325091       -7.15019689888753
C            4.66271884379309        3.61380034265402       -7.72499814535149
C            5.85414252018873        3.43431883604037       -7.08340824616826
C            5.90464986647258        2.78561071701333       -5.83561979856776
N            7.09228733365077        2.60317722293655       -5.16953454413499
C            7.25825345926796        2.00408932521501       -3.94443731253641
C            8.52725306007423        1.88902032518656       -3.34731085778430
C            8.66794680868844        1.29934021841900       -2.12421302225988
C            7.55198360582968        0.80288368293935       -1.44589803438998
C            6.31034347423435        0.89973762535564       -2.00534946173785
C            6.14814343791334        1.49346176387894       -3.25524382145576
C            2.67824863252724        1.65445820258710       -2.47709279650689
C            2.94106358027732        3.12034907533245       -2.17181735455675
F            4.16087998291450        3.23495661641116       -1.62313931002247
F            2.87885653569277        3.81654718798488       -3.31827390248149
F            2.00731045740805        3.56391529248832       -1.31399207199021
C            1.58296210545586        1.02106157920285       -1.93320079998133
H            1.98540032675538       -2.04974693699734       -3.22924967305215
H            3.96332232647181       -0.92779848478566       -4.21711964856603
H            2.58480490619572        2.18214671514171       -5.48248781428487
H            2.53785091439993        3.30943696608376       -7.66243440557962
H            4.63523274843680        4.11481179733151       -8.67921751984236
H            6.76849003274726        3.79042529437779       -7.52566380181060
H            7.93002154011799        2.95845378852256       -5.62222612264939
H            9.38734384652261        2.27449472218319       -3.86694091037360
H            9.64463123403897        1.21718883700382       -1.67524079143052
H            7.67398785183950        0.34406204113408       -0.47770847743966
H            5.44361571287692        0.53159880102729       -1.48430957874292
H            0.91767697030097        1.56968350026343       -1.28712896826050
