86
 energy: -18.855968693864 gnorm: 0.000859124630 xtb: 6.5.0 (97a52f5)
F            1.65396792455710        0.10449884569224        0.29935610769941
C            2.96724823799046        0.38734076562708        0.29288216867485
F            3.46652049371647        0.28699842643459        1.53565686392312
F            3.61645155190813       -0.44818908209534       -0.53485450526122
C            3.15971660652562        1.81760323418089       -0.19039600064759
C            2.28601461390050        2.80435162665512        0.21553742532267
C            2.46701016709124        4.10571662370161       -0.19691990769577
C            3.53246621650378        4.44489402933868       -1.02227256233186
C            3.72664354376554        5.77696226505401       -1.43791928376397
C            3.89923108491726        6.93400301452445       -1.78971456550390
C            4.09738400217776        8.26920787778591       -2.17862576077413
C            4.80149233073535        8.54336114932053       -3.34192079431184
C            5.03247145803132        9.83699662958268       -3.78634724525980
C            5.75295519567581       10.03686018232044       -4.97580410632425
C            6.37843201283185       10.20913386438001       -6.01098558763837
C            7.10231454093214       10.39508404735370       -7.20538683709342
C            7.32301364365127       11.66920156077121       -7.71479790328315
C            8.03189806960162       11.84495993438552       -8.88247068385106
C            8.53417709767436       10.75550283699291       -9.56270397850467
C            9.31054162926487       10.96642463182004      -10.85495017759059
F            8.47470356733200       11.46903904575148      -11.77855714484051
F           10.31011031077124       11.83231925838822      -10.61836613845757
F            9.80676257927664        9.78951958201890      -11.27193830737551
C            8.31995822785234        9.48584861231960       -9.06734726251630
C            7.61164234801450        9.30460280027114       -7.90021677284330
C            4.53554079351249       10.92391148256592       -3.03327335263663
C            4.73675855482770       12.27357599207630       -3.43728401047970
C            4.25163763832810       13.30656874098737       -2.71183331791171
C            3.51864937842948       13.09072523252195       -1.51104928106318
C            2.99979990678034       14.16152360696819       -0.75006369380549
C            3.16988916708556       15.49553558132397       -1.15547388071391
C            3.30550288646612       16.65128178756211       -1.52703543841919
C            3.45527390989794       17.98052989312102       -1.96833428264515
C            4.03109636792168       18.94157884212910       -1.14623490306961
C            4.17474670428044       20.24068073569346       -1.58038246337579
C            3.75007400554851       20.60432244252724       -2.84120872528963
C            3.89705164121936       22.04735597662744       -3.30279928951449
F            2.96164035167408       22.78939993699269       -2.68727641920891
F            5.12372351598609       22.48378816852484       -2.97136068268678
F            3.72987389656082       22.10451161583907       -4.63470351610409
C            3.17414364568727       19.65930259473012       -3.66480629289598
C            3.02779533652320       18.35903069815517       -3.23535828237226
C            2.29739679061875       13.88755792589463        0.41410550640610
C            2.07658519319290       12.59467757216767        0.86553386879528
C            1.35102719858627       12.39816132730639        2.05239046425773
C            0.71517106417638       12.24257721264252        3.08388705929182
C           -0.02025133458524       12.08487260588395        4.27526296946142
C           -0.18599482901627       10.83193012638289        4.85333666910557
C           -0.90722388444416       10.68637544853326        6.01772866453364
C           -1.47399073691929       11.78569931987035        6.62798657774770
C           -2.27780950470872       11.60833587940965        7.90848827998841
F           -3.41693898388170       10.96145922719512        7.61113871524303
F           -1.55036399910476       10.88562274340556        8.77655431427936
F           -2.55403370335792       12.81566874750874        8.42932681237725
C           -1.31755944988850       13.03417631568177        6.06233809543794
C           -0.59761483053510       13.18501592638967        4.89804699084082
C            2.58066971631999       11.50764279663439        0.11719694266303
C            2.38120370540153       10.15797212850427        0.52196209298396
C            2.86338087200803        9.12497440116088       -0.20561439453151
C            3.59266912116820        9.34061913565343       -1.40868006040247
C            3.81357080581364       10.67128804050271       -1.84086448384302
C            3.30399531912453       11.76034884739154       -1.07452778076230
C            4.40745631681594        3.44268879746459       -1.42345739666910
C            4.22177309000585        2.14273759267098       -1.00851814702752
H            1.46146391351728        2.53808599102869        0.85646773509368
H            1.78230409832878        4.87503706773019        0.11805649251673
H            5.18224065265821        7.72103820029617       -3.92212129028912
H            6.93136300867523       12.52078166621904       -7.18427511033735
H            8.20534689809904       12.83191718262203       -9.27922995415771
H            8.71718832321098        8.64273253883619       -9.60845043828799
H            7.44490228124619        8.31302318851808       -7.51365190350103
H            5.28785493538951       12.46364658974708       -4.34172103465505
H            4.41951069606354       14.31809543627905       -3.03843967656797
H            4.36365144501043       18.65724700699817       -0.16180450172523
H            4.62078520648853       20.98851765043310       -0.94535618046001
H            2.84455844372360       19.95650998713350       -4.64692804066812
H            2.57673360011925       17.62181637440371       -3.87830591342619
H            1.90532994637297       14.70975015341952        0.98695119339785
H            0.25721749133635        9.97264670455470        4.37866214689058
H           -1.03731007421048        9.71607795267766        6.46846552657429
H           -1.76558640331862       13.88534987179650        6.54847622878297
H           -0.47514434631269       14.16016100665798        4.45696413194714
H            1.83153042267233        9.96771048701458        1.42724903383352
H            2.69813600504246        8.11344365781757        0.12201791575083
H            5.23608912361424        3.69612145247347       -2.06347048430957
H            4.89872124000561        1.36303262422359       -1.31686684398759
