50
 energy: -10.306355980276 gnorm: 0.000407710330 xtb: 6.5.0 (97a52f5)
F           -0.16245936036015        0.88613386990739        1.04303778060663
C            1.11635164103032        0.65495438345780        0.69233886721838
F            1.17123115327179       -0.26052485150970       -0.29352357915648
F            1.70555566814869        1.79893558898653        0.29649442401036
C            1.85723644529164        0.11398372127822        1.91336153044993
C            1.91343535278449       -1.24477654113176        2.14737907369934
C            2.55595963371227       -1.73097743548034        3.26202035482570
C            3.15757206356730       -0.86642116260478        4.17460082064897
C            3.81671570007702       -1.39503003209747        5.36002552195893
C            4.78106926050833       -0.81700234912322        6.09917355157894
C            5.27757688877851       -1.56455249259448        7.27657758278273
C            6.28723972343752       -1.12043848981384        8.13153392040304
C            6.67225102426958       -1.90340594804685        9.19950920220373
C            6.06643789800294       -3.12573823146899        9.43151960995073
C            5.06500217715350       -3.57796003835382        8.59286215074426
C            4.67823531289211       -2.80079114778677        7.52821150076825
Si           3.42692170696133       -2.99504623939673        6.19294791646391
C            1.69265022248628       -2.99883777234254        6.87071171075308
C            0.81862135741811       -1.98336231901275        6.54818392350157
C           -0.46835284923366       -1.99167409177498        7.04702208550987
C           -0.87987943575488       -3.02127455970937        7.86884207455549
C           -0.00620434975372       -4.04039054085942        8.19023810595298
C            1.28094149290865       -4.02718016758683        7.69037352843430
C            3.81094484729105       -4.42637401411620        5.06836001180966
C            2.79775997815171       -5.23932305201991        4.60808014163605
C            3.07643240330456       -6.25159966133562        3.71177476291389
C            4.37169398470929       -6.44817230383453        3.27776979410684
C            5.38668536461494       -5.63487884308127        3.73970638838098
C            5.10394241671725       -4.62293240443777        4.63549207130562
C            3.08653978702045        0.50375629406223        3.92933528173098
C            2.44135594594205        0.98361492395499        2.81195132989506
H            1.44986159694210       -1.91478796200001        1.44354520413586
H            2.60403120133871       -2.79040505436570        3.44017824365780
H            5.20191835668328        0.13978068671970        5.83942636869299
H            6.75667995729308       -0.17007836334033        7.94751404793368
H            7.45242890307509       -1.56017015936610        9.85885836275888
H            6.37655078546673       -3.72828975929043       10.26931790276170
H            4.58725197669873       -4.52730643678116        8.76166303378639
H            1.14896211404368       -1.19022066336390        5.90010012335947
H           -1.14952975693324       -1.19572374538222        6.79438096245124
H           -1.88415099539825       -3.02946402797319        8.25986284464695
H           -0.32727594615154       -4.84554121679098        8.83046832392815
H            1.97143944675201       -4.81684328224917        7.93392844354395
H            1.79116463255779       -5.07537672713267        4.95321328636550
H            2.28350516635601       -6.88630300570522        3.35179825968480
H            4.59064252276691       -7.23726169453864        2.57722047404338
H            6.39809281186717       -5.78721404540744        3.40065908370878
H            5.88505419115234       -3.97624049933558        4.99789284417430
H            3.52900775455760        1.18908099182391        4.63075760748785
H            2.38293182559491        2.04200087230805        2.62336314323739
