26
 energy: -5.232873189071 gnorm: 0.000568206199 xtb: 6.5.0 (97a52f5)
F            1.13519916149671        0.04700255049866        1.48818801680863
C            2.14121401838467        0.09116641590050        0.59834417228863
F            1.68568106231083        0.50106668119864       -0.59736344033644
F            3.11160846707110        0.91484092232945        1.03208495199333
C            2.71778165432350       -1.30912213785761        0.44118582990289
C            1.88218481063932       -2.39160717676668        0.28151935635457
C            2.41674182561678       -3.65782602914020        0.12219122467483
C            3.78205405747017       -3.85410427875168        0.11509818974987
C            4.63980607805587       -2.75888212428702        0.26898542293326
C            4.08361972281315       -1.49559332814970        0.43501823971612
N            6.03577100831531       -2.89862972390507        0.24487124252451
C            6.76102377268554       -4.08801734314294        0.06829051265553
C            8.15196773790627       -4.04638525489015        0.04666857509015
C            8.89363436319593       -5.19609042072582       -0.12763210024586
C            8.25811826720007       -6.40743153512229       -0.28263973645065
C            6.87543691926761       -6.46512001291735       -0.26435289764508
C            6.12146089190715       -5.32304762505758       -0.09284636889635
S            4.36146724178864       -5.51282097377458       -0.09024367014531
H            0.81627398039395       -2.23604310562742        0.28676248569088
H            1.76644851268078       -4.50902219866379        0.00118447525149
H            4.72060368476598       -0.63955950405750        0.56400460031342
H            6.57830847019855       -2.04674969561582        0.34590242401721
H            8.64863054487846       -3.09924922024568        0.16606806361248
H            9.97037235521019       -5.14595590129697       -0.14271371978881
H            8.83437835807834       -7.30808172189406       -0.41835141502444
H            6.37018303334543       -7.40949725803757       -0.38679443504451
