53
 energy: -11.714288430488 gnorm: 0.000801491098 xtb: 6.5.0 (97a52f5)
F            4.56194391438214        1.39028846202366       -0.13513540952183
C            4.82958223044915        1.86777737318147       -1.36326202663042
F            4.79454556196790        3.21176946228309       -1.35628736795433
F            6.03528870637264        1.43866250685770       -1.77528341833301
C            3.77617191191774        1.36269915477480       -2.34132629921497
C            2.70061397535749        0.59275986450690       -1.88854163001648
C            1.73831774977043        0.13125119717343       -2.74895787423534
C            1.83862265577118        0.43961531930269       -4.10865758383975
O            1.01410857925385        0.10480952934593       -5.16643169122994
C            1.55836784632950        0.65574057744519       -6.31336289980067
N            1.06845295131451        0.55608593369101       -7.54991129829510
C            1.79326978692021        1.17898297061348       -8.48087860490509
O            1.51880402193007        1.23513743189519       -9.83538889475139
C            2.52470749261725        1.97346965898330      -10.43688920674438
C            2.72113320060016        2.31072580606170      -11.77965444205460
C            3.81619291348351        3.05360816770694      -12.12962785620253
C            4.74992207443870        3.49366783510742      -11.16967348106628
N            5.89954150445413        4.26635261717470      -11.57516212729706
C            5.75166008107798        5.60738869638616      -12.02081686369192
C            4.51063165791955        6.22060268200169      -12.07083576298503
C            4.37882484000526        7.52507295952428      -12.50597306280557
C            5.49190104373102        8.23649379539647      -12.89393824601185
C            6.73868478701389        7.64724488935315      -12.84335057851795
C            6.89266343359069        6.33801127494610      -12.40743124060760
O            8.17217281344425        5.79158358508319      -12.36067896589609
C            8.30997844012455        4.47969518940929      -11.91606083568614
C            9.57939357519845        3.92012335654811      -11.86182850513723
C            9.76462247172980        2.61976286581507      -11.43825097009122
C            8.68062531449604        1.85710986580994      -11.06574902315286
C            7.40964216647380        2.39577850191787      -11.11128773626175
C            7.20247855954217        3.70169400464127      -11.52467219385870
C            4.56346422352026        3.16965529139720       -9.83679022032890
C            3.45579425656182        2.40825653416693       -9.47428994362616
C            2.99517230690652        1.90207781614595       -8.21762694750365
C            3.49952974884552        2.00511453261958       -6.93679134986044
C            2.75219375333179        1.35866133589220       -5.97238562875087
C            2.92511462288592        1.21486908020328       -4.56021412365370
C            3.89393616810373        1.67796405726751       -3.67121416582416
H            2.64327707716037        0.36620948261999       -0.83693663254402
H            0.90959711615880       -0.46082243119188       -2.40314948646559
H            2.01073761951470        1.97512214288451      -12.51392917225979
H            3.98784297262024        3.30983409594037      -13.16061964133544
H            3.64113615744243        5.66895985572309      -11.76065693115362
H            3.40486618312081        7.98531086857486      -12.54125953692136
H            5.39066282106396        9.25406239893086      -13.23515997367313
H            7.61760350372664        8.19311544398328      -13.13844272322842
H           10.41704156032096        4.52568482392899      -12.16057672360971
H           10.75733776227446        2.20153469058428      -11.40162715856041
H            8.82328411984495        0.84007102132816      -10.73846113532638
H            6.56338984982319        1.79621978438204      -10.82717147691869
H            5.26417235710960        3.50464503646077       -9.09534621861157
H            4.40224791608714        2.54032256164053       -6.70941521486150
H            4.72163164184388        2.27054604157151       -4.01681949816637
