47
 energy: -9.809599412910 gnorm: 0.000526153888 xtb: 6.5.0 (97a52f5)
F            1.76368873464758       -2.48973977261859       -3.06867004935841
C            2.07368258236894       -1.86024021113374       -1.91961041088739
F            1.95370764033340       -0.52930720175780       -2.07772700998820
F            1.27014236316529       -2.29140603643344       -0.92978181309804
C            3.52093370082418       -2.17812586312908       -1.55011578277687
C            4.29907327100743       -2.94808107427940       -2.38733904978996
C            5.60950020647234       -3.23538162894054       -2.06162679050861
C            6.15073455863286       -2.74957431517861       -0.88868468412878
C            5.38098818348637       -1.97958240267817       -0.04694496607775
C            4.06874485220229       -1.69202738251850       -0.37259437594396
B            3.26093780976749       -0.80284336405818        0.62919711116621
C            3.32632096466803        0.70794693543326        0.54188829082945
C            3.96082924824596        1.34676054403965       -0.51995624276728
C            4.01428616160174        2.71084568162823       -0.57219792898621
C            3.43151080666050        3.46870262165341        0.44280776179923
C            2.80327525636424        2.85252171721842        1.48904122506766
C            2.72999038024125        1.45190924541780        1.56842413580352
N            2.08150860800267        0.82249602596646        2.63632926282863
C            1.47245589728858        1.65240950284425        3.65656385826723
C            2.18459238006314        2.01008190064108        4.79731514842544
C            1.60198545681630        2.79721572347159        5.76431635012693
C            0.30288345820937        3.23878927648649        5.60777915775031
C           -0.41413651972775        2.89097874546503        4.47993080126894
C            0.16430756359473        2.10374410738975        3.51065953998728
C            1.97514134998589       -0.56701394831321        2.75928759324653
C            1.30192294967899       -1.14785166170743        3.84687624670280
C            1.19478938599833       -2.50534003819879        3.96770924010080
C            1.75639957196754       -3.34328511638619        3.00504547062531
C            2.41792770358616       -2.80654005992181        1.93703402830788
C            2.53451121536671       -1.42563756755016        1.80369382930804
H            3.86711594022739       -3.32232058616417       -3.29968722295498
H            6.20947278000162       -3.83805563467580       -2.72348948753693
H            7.17348040165240       -2.97217318216413       -0.63273140501316
H            5.78856969223990       -1.59228871900739        0.87085747013804
H            4.39473627835648        0.74984557273295       -1.30283588343024
H            4.50338836203200        3.20251993312942       -1.39699937908676
H            3.47570121634018        4.54430365543983        0.39868444841610
H            2.35382540595000        3.44100548570265        2.26860599541935
H            3.19603484290690        1.66049434341166        4.90849235221719
H            2.16041032019121        3.06924673007809        6.64491341237090
H           -0.15166327173973        3.85489918328589        6.36613252145371
H           -1.42781559304786        3.23590095413865        4.35845943010575
H           -0.38430035848866        1.82587047034663        2.62775735796179
H            0.86586277390186       -0.50553896164458        4.59071998332370
H            0.67257034388752       -2.93162913635466        4.80818367059406
H            1.66464407191419       -4.41248391677717        3.10331094970127
H            2.84297105216591       -3.44073057435291        1.17898583902127
