72
 energy: -15.401010722218 gnorm: 0.000405802964 xtb: 6.5.0 (97a52f5)
F            1.52580696859468        0.67512339566628        0.07148614548456
P            2.89984939264093       -0.23337106801183        0.38484698109583
F            3.61018011772726        1.20879765011729        0.08131989460742
C            2.53815693932040        0.16358253022768        2.15399332059699
C            3.44108763306993        0.83568580673413        2.97650575073859
C            4.72016984990045        1.27986899251268        2.53782124626630
C            5.57924478322471        1.90359387682595        3.38082022176756
C            5.22206349732211        2.13688274227687        4.72160061361224
C            4.01186229592061        1.74114019945843        5.18858066071617
C            3.08248388932556        1.07968968338393        4.33940493282100
C            1.84293172455749        0.65609266877930        4.81026459204374
C            0.94200323159779       -0.00888566164575        3.98415570171029
C           -0.31458556916443       -0.47146358798320        4.46284204563160
C           -1.16281830896222       -1.14785015459536        3.64818880383737
C           -0.81645650802172       -1.40367284397559        2.30783311371666
C            0.36912109061062       -0.97474632369618        1.80847113705275
C            1.29527516833105       -0.25815785129322        2.62135723931513
C            2.62030629534327       -0.89837439285588       -1.33699673967083
C            2.48573819633989       -2.27733395383355       -1.51289474512470
C            2.45015048898547       -3.19753434735739       -0.42976716949425
C            2.33788551849455       -4.53335194496408       -0.63178808095484
C            2.24712883871042       -5.05210568641688       -1.93613582506706
C            2.25376514858761       -4.21853314107529       -3.00573007771165
C            2.35874611145097       -2.81031457639918       -2.83325058575314
C            2.33592286790956       -1.94410892309128       -3.91971350643228
C            2.39620662665636       -0.56637003514827       -3.74482765048616
C            2.33752717284282        0.31851783933376       -4.85706779609461
C            2.36430015941768        1.66246101972654       -4.68069290985190
C            2.44218077339588        2.20574815817906       -3.38607339274576
C            2.51219117449868        1.39387009132276       -2.30241667870241
C            2.51594731232301       -0.02554919694369       -2.42469249096950
C            4.49086051565737       -1.16135931789468        0.65933270171258
C            4.61799911279638       -2.11938303175249        1.68003517248132
C            3.56695710824165       -2.49277446182296        2.57085166225883
C            3.73458120184868       -3.42736332558969        3.53831060935258
C            4.97075322634348       -4.07269972279542        3.70282798736223
C            6.00691958412663       -3.76773746801581        2.88580749739560
C            5.86669129042412       -2.79655714772770        1.85597097643794
C            6.93160698860121       -2.50699206734782        1.01565051442272
C            6.81277076382338       -1.57242510969051       -0.00203971444322
C            7.91112705363734       -1.29664276764716       -0.86312190244846
C            7.80222682871080       -0.38986053857527       -1.86371060195692
C            6.59254016721715        0.29637423375897       -2.06109792819073
C            5.52747639905710        0.06100155070836       -1.25567266532472
C            5.57235484232734       -0.88261925863977       -0.18820611854964
H            5.00099736493882        1.11614296366321        1.51449999782743
H            6.54338272255456        2.22768010325462        3.02449758347456
H            5.91699038415715        2.63550663701413        5.37722675291745
H            3.74007231322830        1.92056827788091        6.21449423629660
H            1.57995131077310        0.83754296337032        5.83653448120615
H           -0.58112871431645       -0.28095703012409        5.48808940371490
H           -2.11070947755588       -1.49467243919269        4.02576039407259
H           -1.50334917936798       -1.94263988923530        1.67607708812584
H            0.62283753512756       -1.16634860500231        0.78088142694860
H            2.49706452884305       -2.81142373229935        0.56758036116139
H            2.31682148794272       -5.20574161842974        0.21014551294852
H            2.16443164779168       -6.11685195021582       -2.08068907361367
H            2.17425724625525       -4.61432477078166       -4.00354296763541
H            2.24520825040228       -2.34630377661888       -4.91241969524905
H            2.26551670961443       -0.09781393255479       -5.84706239900570
H            2.31571908781946        2.32103133155314       -5.53233802068565
H            2.44146203108070        3.27602309546370       -3.25913662784020
H            2.53502286426871        1.82200241259262       -1.31793221905780
H            2.60708517014334       -2.02905017557945        2.47248668789307
H            2.91434288234315       -3.68045810631042        4.19019376648261
H            5.08953366603745       -4.81129575474930        4.47853746789421
H            6.95532248733688       -4.26280664508539        3.00537072957251
H            7.86553014709950       -3.02198384982977        1.15145532543675
H            8.83631277413296       -1.82472940758160       -0.70833260308576
H            8.64134781476404       -0.19056867093649       -2.50990901201872
H            6.51598692975956        1.01666678333632       -2.85928402201940
H            4.61984205122256        0.60171325400834       -1.42863751811401
