29
 energy: -5.852025909589 gnorm: 0.000728544311 xtb: 6.5.0 (97a52f5)
F            0.94699849252719        0.46489775669726       -1.79762886307985
B            1.94328714225664        0.21965907728137       -0.86265020109941
F            1.40979606487093       -0.04436932148544        0.39190356890212
N            2.76734207715161       -0.99847770904886       -1.32120096046294
C            2.09521626546958       -2.23328984412275       -1.28052148407401
C            2.77661627018632       -3.45225470737632       -1.36193228371550
C            2.09326659746995       -4.64487559274733       -1.31137853223708
C            0.71826480100292       -4.65517623273253       -1.17749027936420
C            0.02701849397965       -3.46272297188312       -1.09142610040648
C            0.70704737236711       -2.26987677025089       -1.14109420488406
C            4.03878091761303       -0.83247392897583       -1.75948643928601
C            4.69195647615647        0.36165275956634       -1.73676117641295
C            4.09079952451412        1.52987376654545       -1.21737012108903
C            4.77274520929234        2.74866593906882       -1.15113681909481
C            4.15254601802724        3.85397758574296       -0.62705121059418
C            2.84961382295619        3.76233817586388       -0.16543184599032
C            2.19235921136667        2.56046495905478       -0.24426631968451
N            2.80508894985912        1.48235851570801       -0.75666566560692
H            3.84862116137378       -3.45868186469122       -1.43761065450899
H            2.63264396843555       -5.57601164932308       -1.37123294124093
H            0.18647418371186       -5.59145833155164       -1.13745412634421
H           -1.04560331313881       -3.46803358067967       -0.98660701270468
H            0.17584352748884       -1.33726588528140       -1.07965504558206
H            4.54169116160664       -1.69068487050950       -2.16745653791899
H            5.69971081829214        0.42743503769787       -2.10838575927792
H            5.78477627186352        2.80932682999692       -1.51227427181052
H            4.67713125400941        4.79395099902886       -0.57453110652026
H            2.35631042402412        4.62698455563257        0.24686657997115
H            1.17652683526602        2.45046730277459        0.09543981411754
