47
 energy: -9.786175702395 gnorm: 0.000844756411 xtb: 6.5.0 (97a52f5)
F            5.25730839091797       -1.96869685324074        3.72228923758394
B            4.13570998533006       -1.17629384409974        3.59226097617744
F            3.46447836527173       -0.99825466870044        4.78476232275770
N            3.18769868477705       -1.76577662469684        2.53074859550710
C            2.48929055705406       -2.89926284792712        2.40694215620195
C            1.73853568613283       -3.08214938283988        1.27172506714928
N            1.65817862358440       -2.21028262987949        0.26683168629717
C            2.36000942975639       -1.10694145118810        0.41428070715963
C            3.12506363857553       -0.85367568454197        1.53839553023597
N            3.91100164523540        0.24707269192977        1.85299132644773
N            4.53458605709527        0.19325028917233        3.00514045494117
C            5.43109218108726        1.10830110622145        3.42229590530506
C            5.74858420989459        2.15536107628121        2.59448347737582
C            6.72716384681521        3.20877432182899        2.74357073248053
C            7.68186570377288        3.38550584152486        3.84514689074679
C            8.03229541728883        4.66267363861227        4.28356570845601
C            8.93147075497810        4.83331943094007        5.31134430249812
C            9.50486771503466        3.73549345251823        5.91968587548537
C            9.17866312022760        2.46415147138647        5.49391718978966
C            8.27897460287831        2.28896069427203        4.46761189804858
C            6.60568698599096        4.01982040956231        1.63503807135654
C            5.58609801179379        3.51450457806669        0.78541862950895
C            5.15997397269360        4.09238947931169       -0.48718383359800
C            3.89862275166922        3.82337221424516       -1.01216511946472
C            3.49296637086591        4.37107935177090       -2.20653173125578
C            4.34157182793384        5.20392757524936       -2.90620221941679
C            5.59559272202839        5.48661778182629       -2.40460332202534
C            6.00194652198371        4.93916351681641       -1.20878299864149
N            5.10567421251899        2.40962455725026        1.39391335229797
B            3.94658672240715        1.49700435250576        0.96514065668322
F            4.11988073680801        1.10646476628185       -0.35179865118396
F            2.75064500197389        2.17369451191736        1.14158280041892
H            2.53451487907692       -3.63079757330813        3.19574403130064
H            1.16794537048570       -3.99203475165345        1.15771347635305
H            2.35802406753499       -0.38295166877580       -0.38342927430684
H            5.89743932121846        0.98095076450837        4.37998848723995
H            7.57799210038729        5.51939103247811        3.81658512427920
H            9.18814320311558        5.82650883988002        5.64230795596585
H           10.21019080790839        3.87085903938911        6.72344194228852
H            9.63417072879713        1.60695595387108        5.96253501874822
H            8.05621684878761        1.29792125240324        4.11318453181338
H            7.19779699259946        4.89769580015635        1.44577121667269
H            3.24026526357528        3.17671843928389       -0.46118233839787
H            2.51260670828040        4.14888181966570       -2.59555800445653
H            4.02579901224663        5.63304271661478       -3.84325590099059
H            6.25947525805833        6.13601263447140       -2.95184290237156
H            6.98578498355521        5.15302257864472       -0.82924903946318
