44
 energy: -9.063350048091 gnorm: 0.000731157673 xtb: 6.5.0 (97a52f5)
F            1.77549704976149        4.98854596772565       -0.50171446645934
B            1.35938171806776        3.80589945822928       -1.07729444835075
F            0.50260067126846        4.00064119763757       -2.14038571298892
N            2.57618350090142        2.97288433030161       -1.52071692912739
C            3.56621194418467        3.13595045089053       -2.40379647415591
C            4.49678091708855        2.13421918187093       -2.53197646140441
N            4.48911197030341        0.99792252238585       -1.83611563756545
C            3.50323438343929        0.86436748441047       -0.97471841766726
C            2.53447714777472        1.83547755970637       -0.79610363798498
N            1.43523038765875        1.85099670716940        0.05095401667817
N            0.67646020024564        2.91865591835403       -0.01435465869391
C           -0.44465026012039        3.09763483047750        0.70980960117953
C           -0.83132018185107        2.12073390102757        1.59287913209417
C           -1.96682919791325        2.04693678379087        2.48657641698994
C           -3.06451262004264        3.01390544331094        2.61080760757286
C           -3.66230086542033        3.25528368401491        3.84771386091721
C           -4.69656621097013        4.15527850543244        3.96753479542989
C           -5.16057180184000        4.82944275411507        2.85674697960972
C           -4.58879559018027        4.59756264867810        1.62273061397370
C           -3.55381269377064        3.69924776113967        1.49870474637236
C           -1.83215097771677        0.87495582891561        3.20061966773031
C           -0.65508091432191        0.19697906966580        2.78284404598392
C           -0.18418576463774       -1.07676575052591        3.27091187502195
C           -0.92603758667987       -1.95837968451739        4.00823240497644
C           -0.23858241143364       -3.15219463513337        4.34327965729873
C            1.02910450018010       -3.19204321328205        3.87814573005962
S            1.41194892610148       -1.74293341990963        3.02627369843463
N           -0.09990076916821        0.97090746723845        1.82604086198103
B            1.15892558530239        0.68272591725773        1.00243880205921
F            0.96197857117076       -0.45888515206992        0.24455119806777
F            2.24427658790417        0.55610790803134        1.84998684992981
H            3.60519211502524        4.04150097637898       -2.98548736881157
H            5.30237087630505        2.25087159895006       -3.24188771721952
H            3.44838687522467       -0.03941557752648       -0.39038353256887
H           -0.99700919679064        4.01028388995786        0.59652314267917
H           -3.29441347388647        2.73815709310722        4.71698673337883
H           -5.14466028455190        4.33467461059953        4.93129243987277
H           -5.97116572276801        5.53358493067949        2.95216366901385
H           -4.95760439129238        5.11716781953420        0.75327072000649
H           -3.13729570381278        3.49237904396666        0.52851254676438
H           -2.52337550833562        0.52050088683691        3.94475491221587
H           -1.95109421934791       -1.77276475513799        4.28991151410704
H           -0.68956228744941       -3.95290014190337        4.91229331086132
H            1.71925470639293       -4.00303180178220        4.01704391173440
