37
 energy: -7.476617018079 gnorm: 0.000960680207 xtb: 6.5.0 (97a52f5)
F            0.59678735086747       -1.30647231655758        0.92341105592791
B            1.88923178462721       -1.75803349657570        0.97592485309682
F            2.10374200279250       -2.71369066436599        0.01257885063284
O            2.82123598543217       -0.65060349830338        0.73800719362914
C            4.13147198748990       -0.85136359495262        1.06044480665784
C            5.09834825697502       -0.06660365719126        0.45910106008402
C            5.95775563603165        0.62628123693717       -0.08934703620503
C            6.93585781318166        1.39335531010920       -0.71346378365314
C            6.75958673862154        2.76588287537701       -0.89892447091496
C            7.73012223640041        3.52132523082294       -1.51743759057675
C            8.89434760570076        2.92509683447120       -1.96296958768045
C            9.08561060851149        1.56789489579893       -1.78776292445060
C            8.11827126724483        0.80780371294072       -1.17015462460558
C            4.48584444054004       -1.83211553913093        1.99423127710481
C            5.92388983654766       -2.11474449599027        2.32381639017112
C            6.13921416154195       -2.63349980084572        3.75944921583212
C            5.06827819756117       -3.58239781808108        4.21539857651305
C            5.32115675764273       -4.51651012915202        5.20202219785580
C            4.32229498809070       -5.35661549664819        5.66003440623994
C            3.04595189696617       -5.26483393729697        5.13784838430053
C            2.77182410352568       -4.34287477272442        4.15749954264310
C            3.77179823402880       -3.49632455396818        3.67298555113818
C            3.46348972985589       -2.54538248385462        2.62781057967229
O            2.15990691917955       -2.35843409968213        2.28418975532780
H            5.85078870852984        3.22611137727212       -0.55042539046309
H            7.58122984604269        4.57979185921663       -1.65532746575265
H            9.65221991283637        3.51784116695434       -2.44822162042484
H            9.99351664304008        1.10313743095452       -2.13599085642608
H            8.26271545178719       -0.25022206228314       -1.03297924525018
H            6.51639332491088       -1.20653338097831        2.16148724355384
H            6.30417733813996       -2.84911091519684        1.60455701352998
H            6.17180522288097       -1.78838455123183        4.45674571792898
H            7.11581290362021       -3.12554981867316        3.84329831982847
H            6.30984276197764       -4.57985687829134        5.62312990177727
H            4.53776990891017       -6.07939722520827        6.42962514943016
H            2.26713675025533       -5.91645370053629        5.49885176743931
H            1.78294268764517       -4.26140304321120        3.73986578605687
