78
 energy: -14.685059921791 gnorm: 0.000680834727 xtb: 6.5.0 (97a52f5)
C            1.17736843860580        0.13928975166975        0.12284945695494
C            2.70371673339393        0.10848563957518        0.10674629749157
C            3.27580329166931        1.48236177413880       -0.23854776585552
C            3.25630650246498       -0.38830944903205        1.44181420509595
Si           3.29685356137248       -1.11448960417275       -1.24476377436013
C            2.56555169528020       -2.80843503415933       -0.92076751757918
C            2.67358295562256       -0.55432190616683       -2.92032392893437
C            5.08020494324653       -1.20822945513726       -1.23908140217775
C            6.29176670414005       -1.26002200815952       -1.16568025287152
C            7.69618637527707       -1.32447969942698       -1.08054894707227
C            8.34085154809616       -2.11616076419984       -0.12694222392679
C            7.75310696741741       -2.96786435002624        0.92823470101917
O            6.57923026197361       -3.14094216147235        1.17708303790818
C            8.89873104221862       -3.57396406169695        1.63220097061200
C            8.92886124420665       -4.45347316027013        2.69818421788811
C           10.15511620706811       -4.87456849487804        3.17682509220906
C           11.33334836505228       -4.42400845237897        2.59942213460224
C           11.30614433393652       -3.54617158901997        1.53426034828322
C           10.08145661069650       -3.11760087153752        1.04550421490193
C            9.74163369869819       -2.20695681901275       -0.04999418204823
C           10.57819690968086       -1.49954537229755       -0.92605889571942
C           11.98372485645895       -1.58649765288607       -0.86481073323634
C           13.19717169711847       -1.64427719730072       -0.83300459040357
Si          14.98309702992637       -1.64633571260475       -0.90559621100387
C           15.54758355591484       -2.41042920434492       -2.51992603708659
C           15.61654194518945        0.11641231371812       -0.89411618007332
C           15.76189787713925       -2.60984692177958        0.55890127789039
C           15.22965579136209       -1.99031594469081        1.85007568573609
C           15.32786691925685       -4.06937776594192        0.43468028237710
C           17.28242213657474       -2.48822406760534        0.48504259762297
C            9.93258300527375       -0.70053493867599       -1.87379321036412
C           10.51842535878545        0.15716912396866       -2.92507932108824
O           11.69162851789201        0.33414335416491       -3.17380841027267
C            9.37182995968245        0.76652366113821       -3.62482871993370
C            9.34288806578295        1.65797762169688       -4.68077488556413
C            8.11712395411135        2.08805325879815       -5.15203514086033
C            6.93844544335774        1.63513006451112       -4.57755473808787
C            6.96356701739393        0.74471966484887       -3.52248552608928
C            8.18880005671092        0.30571579183428       -3.04191430443520
C            8.53172132003357       -0.61091668234388       -1.95172915306242
H            0.81155922773980        0.83181040565607        0.88106708327560
H            0.76824406197274       -0.84589980443998        0.34513134201846
H            0.78214902558655        0.45906444247958       -0.84096138883231
H            3.01234531120915        2.21667361601255        0.52295822857741
H            2.89038239516179        1.83806022095879       -1.19386625394056
H            4.36311936406399        1.44386672715691       -0.30806892487197
H            2.99431048386986        0.29422078187317        2.25052171402686
H            4.34297545512937       -0.46895811512516        1.40648502659448
H            2.85615856881434       -1.37124923299531        1.68944087464224
H            1.48072157485064       -2.77102708484941       -0.95282136418967
H            2.87806612050867       -3.17482748699863        0.05246539849085
H            2.91228088842814       -3.50419380307021       -1.67942001090586
H            1.58823207681818       -0.51953336972812       -2.93270436210488
H            3.00760648089695       -1.25114502260202       -3.68378147833442
H            3.06033529691438        0.43184801385078       -3.15925160157054
H            8.00701184370086       -4.79349087078019        3.13633941070261
H           10.19553835926677       -5.56014901375521        4.00721628603060
H           12.28030252328635       -4.76300141919076        2.98604265618798
H           12.21219506083083       -3.19149040013552        1.08004585555782
H           15.13827870610860       -1.84394028865246       -3.35133425763720
H           15.19806867970469       -3.43573545295700       -2.59546994282560
H           16.63095922906100       -2.40064582073741       -2.59227059049243
H           15.15580260453428        0.67146721351394       -1.70610815836136
H           16.69413784977866        0.13793370792536       -1.02644488807517
H           15.36641658904018        0.60365436316828        0.04348912979342
H           14.14077764030680       -2.01969472901846        1.87745579057641
H           15.53785562353677       -0.94880101807438        1.93952942520155
H           15.60332848238854       -2.52650295154913        2.72263679217709
H           14.24204125114904       -4.15289238860186        0.40228014747788
H           15.68645112737036       -4.65575855944435        1.28085236199991
H           15.72476034298270       -4.51893424553740       -0.47529344071140
H           17.59603056477884       -1.44714300234927        0.55645653101997
H           17.66262967438007       -2.89188872693656       -0.45294656373528
H           17.75489940941038       -3.03576493832344        1.30067776102036
H           10.26523236515044        2.00155579391999       -5.11514601865749
H            8.07701980759894        2.78323834693902       -5.97453222602476
H            5.99216038355336        1.98301581172358       -4.95797345162972
H            6.05416265422549        0.39213562139870       -3.07136535955541
