44
 energy: -8.254303734308 gnorm: 0.000530236244 xtb: 6.5.0 (97a52f5)
F           -0.63145150467269       -0.90920009497893        2.40452830093001
B           -0.88520585913403       -0.29833804101259        1.19120062546044
F           -1.75398646770605       -1.05573899170786        0.42748653478411
O           -1.46266073783481        1.04383586238985        1.40491634792652
C           -1.23039723715975        2.06212429202312        0.51782160908927
C           -2.12828716538721        3.21957989211594        0.57500301143186
C           -2.15853091934921        4.20909080244804       -0.40706601745906
C           -3.01889386189224        5.28216481481480       -0.32420912889283
C           -3.89090029971613        5.39600573467889        0.77658307717580
C           -3.87073770735947        4.39981684726956        1.77200582192337
C           -3.00272849252001        3.33723173902016        1.65032216876824
C           -4.78454515861008        4.48788029133768        2.95947081082950
C           -5.19751960311780        5.93256215783488        3.27447348140368
C           -5.69790573933823        6.64212452312674        2.01721706431015
N           -4.77034154690368        6.48251448186017        0.87736671852687
C           -4.83302569225753        7.54257494978138       -0.15083232873421
C           -4.37063235176490        7.04623245239844       -1.51983538340121
C           -3.02304961585518        6.31952752002777       -1.40944669453020
C           -0.18574043890292        1.99516233909392       -0.35594458011429
C            0.70293591332705        0.88522867408416       -0.36288807445569
C            1.86153841143727        0.87819739028963       -1.13794325560553
C            2.70658441882184       -0.20493644090204       -1.10061893234299
C            2.40230909562701       -1.28817284711633       -0.29893731068013
C            1.25141293935267       -1.26570124771268        0.45090967535284
N            0.43804531267301       -0.20076653107553        0.41579754881755
H           -1.51123846136602        4.13458006019773       -1.26075675224291
H           -2.99156975656049        2.57096101565514        2.40466769369744
H           -4.29637842329183        4.02982892680099        3.82879114195357
H           -5.67580195684207        3.88064455791237        2.76314186996594
H           -4.33605678056982        6.47729841788881        3.67954544136363
H           -5.96270288656137        5.95540856990099        4.06277404534145
H           -5.84221379786897        7.71225197215981        2.20097857180117
H           -6.67039051244303        6.24252501075810        1.71387512793766
H           -4.20515150361824        8.37262555564546        0.18716420488701
H           -5.85900744242764        7.92353944005597       -0.19623524035070
H           -4.30645743578380        7.87939627890267       -2.23333367182787
H           -5.12181548051055        6.35998170573595       -1.92929366604513
H           -2.22592806583904        7.04392471079556       -1.20589785694030
H           -2.76141537739777        5.84828150322347       -2.36506418486120
H            0.02096344639655        2.81551039695971       -1.01560147480353
H            2.09112419613983        1.72921043160665       -1.75570747816414
H            3.60553418241650       -0.20985089326104       -1.69512101826283
H            3.05716148733058       -2.14317265119188       -0.26594996074378
H            0.97314887704117       -2.09668557983624        1.07659211677952
