34
 energy: -6.946536977207 gnorm: 0.000888321115 xtb: 6.5.0 (97a52f5)
F            0.85400490586070        0.03597597940846        0.26454801843598
B            2.22529490660507        0.05593320760051        0.09092999521576
F            2.54704732214154        0.09634499536256       -1.25280672457666
O            2.80051556407614        1.22179123726927        0.77947625929850
C            3.74110441137247        1.12448145127527        1.75854735968995
C            4.23851432289103        2.38658527584019        2.32738006453689
C            5.40849359547297        2.47159578554547        3.08096363187272
C            5.82997879247302        3.68486032946741        3.58669421103462
C            5.09866078799023        4.82736646780812        3.34713920473687
Br           5.67957191268021        6.47965154414099        4.04378685526168
C            3.94535265084122        4.76405198890682        2.59717545498140
C            3.52019206500036        3.55354080548507        2.08942512244737
C            4.18602605012868       -0.09023909415108        2.19495253054179
C            3.70316208648572       -1.30415221780804        1.64939558143452
C            4.14826049104525       -2.58940516031697        2.10794532384594
C            5.09732642256858       -2.75936992310171        3.13732415552934
C            5.48442938542301       -4.00457485441432        3.53940227507719
C            4.94713273464703       -5.14300317458604        2.93780535213284
C            4.02798275585914       -5.02062301636214        1.93938847155451
C            3.60666559067886       -3.74821995111867        1.50095690578663
C            2.65367887025776       -3.60391841968057        0.47055845334267
C            2.26682219046021       -2.36516850762120        0.07773153969898
N            2.78392578433009       -1.25494694661939        0.66084834448734
H            6.00230870461301        1.59231204776557        3.25487416061222
H            6.73442299552172        3.75333223764480        4.16949094712800
H            3.38537262778456        5.66676078391486        2.41352281290031
H            2.62284687124050        3.49351056879620        1.49747778520231
H            4.90236124489143       -0.12479586691792        2.99059941070511
H            5.52600188282840       -1.89882709063661        3.61728152706662
H            6.21061320632170       -4.11285196631934        4.32858118742824
H            5.26143273781067       -6.12028896953959        3.26589950385986
H            3.61197070886935       -5.89774176995531        1.47440766981656
H            2.23930444107459       -4.48104362019926        0.00463188031785
H            1.53958097975478       -2.22567415688342       -0.70487527140396
