34
 energy: -6.315870343274 gnorm: 0.000482536091 xtb: 6.5.0 (97a52f5)
F            1.26305935741439       -1.43073831431912       -1.42585839626461
B            1.54072209645548       -0.82306796783182       -0.21681762972221
F            1.38146285670417       -1.71821964427952        0.82312484075338
O            2.92510303364811       -0.31475495799166       -0.22484714442019
C            3.25226632257430        0.98626906019934        0.01481694258030
C            4.68325924743883        1.32476954578143        0.02604343547075
C            5.59118185277908        0.40276005633053       -0.48380844226280
C            6.94431978533372        0.67243031233852       -0.49623730368445
C            7.41155606834593        1.86668652026000        0.00594828984014
Br           9.25991480321699        2.23730717436057       -0.01194351364746
C            6.52994699047960        2.78985261737385        0.52372112686564
C            5.17545508979089        2.52478372416494        0.53775120448908
C            2.28191116668771        1.92436001055475        0.22024611888364
C            0.90695448203254        1.58966110979445        0.19809320782522
C           -0.05105615826800        2.57991207435183        0.39646680590493
C           -1.37417883238408        2.96737976738074        0.49510625289912
C           -2.67196747785282        2.45885877817511        0.42747868137714
C           -3.54903396945811        1.33131658161358        0.24212624383344
C           -3.63470797568812       -0.03403861891643        0.01122849260157
C           -2.73868829103432       -1.05730714377143       -0.17790470203702
C           -1.40519928449330       -1.05994677129945       -0.20384541773954
C           -0.75126813900472        0.03832105282088       -0.02979394521025
N            0.53599738000005        0.31906666409754       -0.01380219502151
H            5.21596743092919       -0.52916928133839       -0.87054771516578
H            7.64593609988585       -0.04203040652280       -0.89530732944428
H            6.91321945230388        3.71681721236442        0.91874111716095
H            4.50071764576471        3.24491775438791        0.96421406720878
H            2.54793131617966        2.95180174489834        0.37909818757367
H           -1.38391588414513        4.03617457503111        0.69180938846538
H           -3.33446155851641        3.31260146505263        0.59489115207025
H           -4.57036980216138        1.70664502744598        0.31900421298138
H           -4.65097231550660       -0.40568108044857       -0.03535651766008
H           -5.04608252145967       -7.71655426430582       -1.35643968132964
H            2.21977973685537       -3.27466438906062       -0.64840981232591
