30
 energy: -5.753578109999 gnorm: 0.000499857705 xtb: 6.5.0 (97a52f5)
F            2.07483915093735       -0.87693738491533       -1.83841109796381
B            2.01126903251797       -0.38426153261089       -0.55230076483124
F            2.55180071434047       -1.28744811004417        0.33823989801477
O            2.71924456470436        0.89674286118782       -0.46597272541720
C            2.15206426444308        2.07413332946745       -0.07433464998708
C            3.04219581266927        3.24433235677696       -0.03077008251048
C            4.28776263927991        3.14627431960339       -0.64069590864870
C            5.16407325416667        4.20693838111163       -0.63686978016618
C            4.81668487025085        5.38997064309922       -0.01725877883720
C            5.78824205625269        6.55848140048744       -0.02341974685512
F            6.93399207879863        6.16948047906425        0.55805902599191
F            6.01995326958736        6.91886275443736       -1.29568249390933
F            5.25285253804524        7.58549687637174        0.65563263368487
C            3.58787304288631        5.49874301488977        0.60304257277149
C            2.70792934815191        4.44033153108159        0.60183938022026
C            0.82825191871536        2.13413877439244        0.23811970199444
C            0.00924046669783        0.97464918870305        0.17225263896207
C           -1.34514472858427        0.98579868596683        0.46669053216097
C           -2.05602490159545       -0.18700859003005        0.36977128320680
Cl          -3.74778920626288       -0.13785067816483        0.74270008890802
N           -1.51605831526350       -1.35238103478281        0.00427336216331
C           -0.23059951713910       -1.31422269095578       -0.26567701732579
N            0.53314063892845       -0.21918312834834       -0.19670057656857
H            4.55272460711985        2.21536629206153       -1.11773107365659
H            6.12877228635862        4.13050939201111       -1.11418884975668
H            3.33406378940945        6.42797400388639        1.08968819318174
H            1.76486211291293        4.53790846770112        1.11198356203753
H            0.37383864374948        3.06754528217178        0.51327006629520
H           -1.84031555606259        1.89455557232008        0.76518605137826
H            0.24563112398378       -2.23565045694078       -0.56696544453774
