40
 energy: -8.348492940841 gnorm: 0.000595319868 xtb: 6.5.0 (97a52f5)
F            5.57911995696448        0.53822472906042        4.04388600157408
B            6.52569090610263        0.11952289134835        3.12640211554008
F            7.45952253762725       -0.71011292041564        3.72035059309112
O            5.85061512080475       -0.61570860859776        2.04641297527775
C            5.87522236007703       -0.20805593286090        0.75122452286875
C            5.13027828236320       -1.02555301526610       -0.21742147528440
C            4.84628699723536       -0.60826877919935       -1.51745465530483
C            4.13657768663261       -1.41914488932025       -2.37561974847881
C            3.69309590295189       -2.65966071487769       -1.95383097455315
C            3.95860928275131       -3.08093623757914       -0.66989372335616
Br           3.35553549596367       -4.76302618696441       -0.07162109682328
C            4.66605985844242       -2.27516344803709        0.18882096969760
C            6.57108437870277        0.90466511605150        0.38191607102566
C            7.27983951283632        1.70477927750967        1.31172509715708
C            8.00701877507821        2.88195215623673        0.88393643594795
C            8.06530768123155        3.27661695239406       -0.46392106074008
C            8.75021491673525        4.39586895788243       -0.85024327924017
C            9.40615230193854        5.16958247344681        0.09357529077118
C            9.37194534828545        4.81218200303722        1.41394246626902
C            8.68074256572205        3.66849761081810        1.84335798061769
C            8.64120430495816        3.27464091932361        3.23653491079544
C            9.28638803616910        3.99948209260392        4.25001639339523
C            9.23056993913676        3.59757051716377        5.55769769760819
C            8.52743708020973        2.45303307239244        5.90420961049285
C            7.89010879140307        1.72810366773709        4.93781681168094
C            7.92678985511546        2.11318185101499        3.59230755073150
N            7.26982883152958        1.37194153871759        2.61271083941664
H            5.16614765143466        0.36168200046704       -1.85291182344131
H            3.92302683363779       -1.08600369324958       -3.37798057942299
H            3.13706932847353       -3.30297878788180       -2.61605434999208
H            4.86498241165162       -2.60930131809364        1.19322457189271
H            6.58860458614078        1.17020306168742       -0.65457200681500
H            7.56797083364599        2.69523524261804       -1.21762659794652
H            8.78097258332842        4.67866903707992       -1.88988685477323
H            9.94252658473888        6.05222513093288       -0.21450626328328
H            9.88712807245414        5.42657055422414        2.12904226858249
H            9.83805976516798        4.88823458944595        4.00505893795720
H            9.73303204367014        4.16946401292922        6.32055057467502
H            8.48495486748434        2.13822897818047        6.93407466151834
H            7.34374773122378        0.84050609804857        5.20170914086809
