34
 energy: -6.316676231656 gnorm: 0.000594837462 xtb: 6.5.0 (97a52f5)
F            1.28597191943504       -1.37262623978594       -1.59657150946563
B            1.54175033050324       -0.86394791543032       -0.33790508427862
F            1.35953582530304       -1.83824384457089        0.62353522636103
O            2.92743226817243       -0.36220600825832       -0.27715524325870
C            3.25013283856649        0.92798858877586        0.01923986332479
C            4.68030613484414        1.26493705126683        0.06548226289366
C            5.60017018540968        0.36228798822648       -0.45741965289853
C            6.95053968609498        0.63113396468939       -0.43510377294254
C            7.40915495746047        1.81241987942737        0.11853373121676
C            6.51205463872119        2.71308335248562        0.64882987968987
Br           7.12619477378191        4.32091447690411        1.41543564651776
C            5.16342424219163        2.44928528724956        0.62746902306677
C            2.27786800856387        1.85752851868732        0.25166130239715
C            0.90355113606190        1.52295402645185        0.20539318653241
C           -0.05722640680792        2.50164853742047        0.44324526401592
C           -1.38274135218244        2.87757666775585        0.55424347072778
C           -2.67741472107272        2.36064377035961        0.48656350110770
C           -3.54986832307246        1.23235242994162        0.28346472586583
C           -3.62998826261072       -0.12265759001295       -0.00354460545686
C           -2.72988604883688       -1.12832552511935       -0.25676801960752
C           -1.39697426771044       -1.11725147163134       -0.30536069248246
C           -0.75033229302277       -0.02033872094521       -0.09857664057724
N            0.53590353858541        0.26336367577439       -0.06877785989081
H            5.23272339372757       -0.55625400950007       -0.88205255715428
H            7.64965079143628       -0.07765146449715       -0.84741515615160
H            8.46267683148350        2.03876506259936        0.14478971859758
H            4.49121842967797        3.16393964873815        1.06846387661919
H            2.54217726408234        2.87717497511583        0.45705141454708
H           -1.39927522454524        3.94268470813609        0.77034233069384
H           -3.34423335368835        3.20638557836801        0.67651384709865
H           -4.57198529835142        1.59480423232265        0.40081915771620
H           -4.64403101674462       -0.50103193523064       -0.04364683094475
H           -4.64606118683249       -6.11558552182144       -1.20773285161567
H            2.21094056187405       -3.38056217387307       -0.73356695295908
