41
 energy: -8.682167524085 gnorm: 0.000784609413 xtb: 6.5.0 (97a52f5)
F            1.50538841361331       -1.34177553716683       -1.52662635595125
B            1.64388185917480       -0.81026426271289       -0.25884035223840
F            1.61611496220916       -1.80483811574478        0.69957303128755
O            2.90060451944461       -0.02996303657638       -0.16482550356164
C            3.01068069793517        1.32885510798096       -0.07028062400259
C            4.38230953144527        1.86194630507387        0.04725631469334
C            4.73961607549290        2.72905726551926        1.07928651687279
C            6.03151922152093        3.18841296358205        1.19163667561689
C            6.99242614464137        2.78018504031762        0.28844676413463
C            6.65948834890697        1.90204106313795       -0.72349686874789
C            5.36829982004483        1.44074138796893       -0.83984655456504
C            1.86728126043013        2.12391084679140       -0.04459619655991
C            1.80149091914810        3.58171429198279       -0.09190452554166
C            0.60792008544209        4.22209015390971        0.26282060766949
C            0.49475436402089        5.59405231757335        0.22265408864250
C            1.56188364809179        6.36294490970356       -0.19376619500861
C            2.73631107925542        5.75239056488000       -0.58484237633016
C            2.85379467676704        4.38250803633095       -0.54397012247126
C            0.63923526762575        1.43130354522462        0.04564321144803
S           -0.90268201988790        2.08893814176434        0.25879194757536
C           -1.82971112047036        0.66964738095470        0.28078406658087
C           -3.18162712937014        0.39959876855699        0.42306697551569
C           -3.58823381914949       -0.90760307661023        0.39454847615591
C           -2.66266610564320       -1.94795544677927        0.22633945247981
C           -1.32612606583343       -1.69003024568114        0.08549223849851
C           -0.88153792054827       -0.35798495001831        0.11071256076658
N            0.43549947466741        0.11389378653431       -0.01106212101047
H            3.99099547630618        3.03201435516247        1.79097887250992
H            6.29408856281685        3.86555107866749        1.98794889206414
H            8.00410589410413        3.14060728537861        0.37791499789195
H            7.41328462363701        1.57384069531531       -1.42047447145261
H            5.10340387349726        0.74352166116786       -1.61632325893647
H           -0.26791603569642        3.60384448117349        0.55663944286310
H           -0.43117338088040        6.06601957328627        0.50777385385799
H            1.47394729804162        7.43663311823419       -0.22508406694781
H            3.56380585156583        6.35234766005239       -0.92671706634341
H            3.76046791380540        3.91913103103102       -0.88750508453684
H           -3.87570509635331        1.21098135901771        0.55239011856036
H           -4.63431814177909       -1.14220062517326        0.50348650627716
H           -3.01134518187799       -2.96734683723203        0.21038901281226
H           -0.60578784616269       -2.47963204258229       -0.03528288056802
