40
 energy: -8.397965015970 gnorm: 0.000744216194 xtb: 6.5.0 (97a52f5)
F            5.59958266861604        2.63751850028002        2.91978237505731
B            6.54638503915479        1.75615404428638        2.42878483623893
F            7.45961162163129        1.41115477864508        3.40907124295834
O            5.86590456019249        0.53871936706523        1.95900031253568
C            5.90488139900966        0.12610519946205        0.66507625661574
C            5.15350578946122       -1.09213171348677        0.32596979645714
C            4.83283664015815       -1.44669382226451       -0.98371602438745
C            4.11880257781950       -2.59486308343661       -1.24458551036072
C            3.70747524716544       -3.40844781349472       -0.20871450721463
C            4.00883933521590       -3.06767778085171        1.09359554510666
C            4.72258240526740       -1.92026609015911        1.35675718368790
C            6.62335486018547        0.81655566188699       -0.26592719394551
C            7.34196226044260        1.99724865061060        0.04496948505834
C            8.09728074973263        2.70203369461133       -0.97008924199215
C            8.17100728442755        2.24755122445538       -2.29824078545742
C            8.88730084050071        2.92631121559867       -3.24565721967877
C            9.56072761035636        4.08904018107764       -2.90698051247320
C            9.51141178939561        4.55812037886337       -1.62249151107816
C            8.78660957031444        3.88512933367263       -0.62643657219488
C            8.72773990227216        4.36878056482269        0.73757004607398
C            9.37898784648171        5.53829961781956        1.15839437473283
C            9.30288754658157        5.96714624922330        2.45660863346887
C            8.57198248229966        5.24265648646220        3.38680067156133
C            7.92790030193611        4.10048856081209        3.00436576712707
C            7.98482732691586        3.63588471038169        1.68472594233796
N            7.31843124612576        2.47450248706735        1.30014503433416
H            5.12557590004466       -0.80976299099977       -1.79905449342527
H            3.87585525256197       -2.85700778290780       -2.26144622004390
H            3.14839108512384       -4.30609621360654       -0.41637819781485
H            3.68494884745236       -3.69905086669548        1.90471987738672
H            4.95824220296054       -1.64343133628945        2.37015787067377
H            6.65650202652964        0.43352120081477       -1.26472820210733
H            7.66027768121292        1.34869276045119       -2.58919481892910
H            8.92971076159951        2.55819614860862       -4.25782108924390
H           10.12355501187575        4.62111240428553       -3.65638913790784
H           10.04174466905341        5.46073629833535       -1.38100500595205
H            9.95018163284917        6.11568919104952        0.45520316611251
H            9.80984219147580        6.86894288997918        2.75866628667204
H            8.51297942893576        5.58210181225980        4.40800839851641
H            7.36000440667715        3.53597588130163        3.72170314148883
