34
 energy: -6.998262090844 gnorm: 0.000793922718 xtb: 6.5.0 (97a52f5)
F            0.72888495742425        0.14812808097423        0.37080866816913
B            2.09943943544911        0.16822265283943        0.19292759129017
F            2.41803157468907        0.20530667394785       -1.15149035590638
O            2.67605637511418        1.33681558214173        0.87701696234935
C            3.61811084175354        1.24392662084995        1.85582565570059
C            4.11570899435461        2.50758705824624        2.42000100162691
C            5.28328269185263        2.59491191106229        3.17641354067276
C            5.70583105145709        3.80652177603984        3.67663278811283
C            4.97741932401366        4.95259305182359        3.43071062071478
C            3.82421444095075        4.88478495823219        2.67645358371280
C            3.40054904393957        3.67461428374479        2.17533785030974
C            4.06340955095702        0.03030670659361        2.29446665257802
C            3.58016007725900       -1.18569839201933        1.75337651008511
C            4.02602366260299       -2.46893700223779        2.21682862957558
C            4.97463336150231       -2.63426264737583        3.24740251744686
C            5.36243006373487       -3.87779857280933        3.65473958222327
C            4.82621083359586       -5.01913697984981        3.05741364934319
C            3.90722561571723       -4.90116144170676        2.05779250792207
C            3.48546744214709       -3.63070588963238        1.61430060717646
C            2.53246937995990       -3.49119804887139        0.58314213181079
C            2.14448775499594       -2.25387673981263        0.18609800554274
N            2.66038232468683       -1.14117798836365        0.76502725410886
H            5.87353815055311        1.71424444481166        3.35650134810101
H            6.61081945658396        3.86085675120118        4.25955828574347
H            5.31067524388744        5.89911766367925        3.82369666763781
H            3.25569116973598        5.77882361899963        2.47884544804188
H            2.50433440430426        3.61237740129615        1.58163884620973
H            4.78191614786102       -0.00180228005948        3.08819917442805
H            5.40219050066145       -1.77143506075294        3.72432160706385
H            6.08809481394742       -3.98272267572699        4.44481899553884
H            5.14089105655903       -5.99487380169311        3.38956253406059
H            3.49182547582007       -5.78026383401050        1.59602948682241
H            2.11914776612597       -4.37058290820902        0.12060293943607
H            1.41691701580275       -2.11888497335262       -0.59697128764934
