36
 energy: -8.386297885538 gnorm: 0.000800065310 xtb: 6.5.0 (97a52f5)
C            1.10083941808503        1.14225237733837       -1.03189572786024
C            2.19002546942534        0.75697390406938       -0.65427934600855
C            3.44499738798929        0.31026022411112       -0.22401862620502
C            4.17342309840943        0.79068658256171        0.82193937069221
C            5.41358463986960        0.13373255569331        1.01421847390647
C            5.65224965274801       -0.86324209015593        0.11512458882611
C            6.84219134800972       -1.70240349237560        0.07692139162079
N            6.90474214354871       -2.62582533427626       -0.86967008727905
C            8.00506490417161       -3.36265452838633       -0.85461948954485
C            8.12987988976840       -4.40006170606246       -1.86850661969428
C            7.21752584892862       -4.66476324231025       -2.84652285354619
C            7.58926165365370       -5.73409619097254       -3.69772405414860
C            8.78745375482525       -6.30293531155249       -3.38682599978097
C            9.41097344347062       -7.37230068048394       -4.04105417026657
C            9.95605548834545       -8.30142025739808       -4.60433783417753
S            9.47625089570204       -5.49308543285817       -2.00778215840385
N            8.99759505107983       -3.23323701375215        0.01116143290887
C            8.82966310374467       -2.27719232190340        0.91117353589088
C            9.89236695120237       -2.08744243672231        1.88879043346145
C            9.89041567592620       -1.16664907066643        2.89439760613963
C           11.05515610122184       -1.19952307832836        3.69985836023864
C           11.96436296487845       -2.14262718451943        3.32624200021590
C           13.20065862927055       -2.40831325521541        3.92713964242215
C           14.27461321895433       -2.64062315127255        4.44685809330477
S           11.36408634304696       -3.01385333065664        1.94341523717497
N            7.77381632651083       -1.48140219617572        0.99292793336768
S            4.31517588765699       -0.98827936181231       -0.99041272665814
H            0.14667879709013        1.48331402684666       -1.36307478352577
H            3.82950889717994        1.60122669544474        1.44639028752015
H            6.11099085263441        0.38905575188559        1.79687594329129
H            6.30066974271742       -4.10580368565718       -2.95161939296132
H            6.98030760886106       -6.07538539927250       -4.52097832531976
H           10.43319135383437       -9.11447278184575       -5.10161816550445
H            9.07249984610047       -0.48093411535647        3.05245962218303
H           11.21504259407772       -0.53768290030180        4.53748144919744
H           15.21371101710462       -2.84505256761892        4.90819495861512
