44
 energy: -8.828576249144 gnorm: 0.000470432942 xtb: 6.5.0 (97a52f5)
F            1.01800521636532       -0.47394975077558       -0.03150649335665
B            2.34239298947529       -0.10363748363074        0.07731822756085
F            3.06350131146864       -1.06092920207339        0.75917211776884
O            2.43779041098944        1.19715086440912        0.75622039171814
C            2.52360267511965        2.37669125547396        0.07053853695674
C            2.30274318158550        3.60985788430546        0.84256091759233
C            2.33527134156265        3.54013053178756        2.23047856294521
C            2.13434137844103        4.66261823589869        3.00151065785677
C            1.89087395910144        5.87847464489073        2.39752000107053
C            1.84424576822107        5.96510565598263        1.02139480305609
C            2.04517517995610        4.84359563140365        0.24802944066668
C            2.82499399198334        2.39126252044619       -1.25716960940238
C            3.07329176447551        1.18575232208077       -1.96957499317589
C            3.49218160286729        1.18471572976731       -3.29275181256387
C            3.73546955934078       -0.01874866894926       -3.93971013132255
N            3.56082273893849       -1.17503817972029       -3.24000047859100
C            3.15365707914849       -1.16358744127374       -1.97024626909951
N            2.90828091666862       -0.01303013649706       -1.34235564498177
B            3.94728443259031       -2.52359899825367       -3.85246204586488
F            3.05186297184362       -3.46985926181565       -3.40196963159546
F            5.22618482283789       -2.81593290922788       -3.42628738728076
O            3.92623821954394       -2.44154219745086       -5.32002806750504
C            4.20647745768428       -1.26801924424177       -5.96424844647557
C            4.55172352887973       -1.36066821311111       -7.39177094574010
C            5.13617921506098       -0.31516250569784       -8.10397830440983
C            5.43600409828762       -0.46003369381597       -9.44021884386431
C            5.16414715172882       -1.64666935727534      -10.08943345527162
C            4.59467777445939       -2.69428330187556       -9.39628194893835
C            4.29444605526220       -2.55182622026181       -8.06050584438682
C            4.13319950801438       -0.07851256531279       -5.30451800773396
H            2.51972942519086        2.58407528751551        2.69115341938319
H            2.16641973190670        4.59127925453590        4.07674003944825
H            1.73351197280103        6.75849039349716        2.99991094447846
H            1.64653005743197        6.91436157422467        0.54986656058347
H            1.98242667064540        4.92041602767452       -0.82283821984378
H            2.93629705730151        3.32389147912940       -1.77640994992861
H            3.62305694929292        2.11402008797450       -3.81711296263469
H            3.02163361455215       -2.09438512900688       -1.44638404245950
H            5.37327040655425        0.60763013401091       -7.60523138652436
H            5.88751199219869        0.35613927120469       -9.98105876780121
H            5.39932530211013       -1.75657780198969      -11.13569012974878
H            4.38487639979531       -3.62395554966406       -9.90019791566525
H            3.85259056017949       -3.36415352236312       -7.50809968052129
H            4.30795355813725        0.84245254807026       -5.82693320439829
