34
 energy: -7.006468551135 gnorm: 0.000543330782 xtb: 6.5.0 (97a52f5)
F            1.17600374645321       -1.33731747881840       -1.53521310603878
B            1.42666916227360       -0.79004690027373       -0.29021305057663
F            1.28508646273647       -1.74272062984191        0.70215712980162
O            2.80090406645698       -0.25615733761715       -0.26143082448699
C            3.09967768700557        1.05061017572485       -0.01490517736912
C            4.52348163032691        1.42194968913872       -0.00346008481800
C            4.98720824334296        2.64076971686998        0.48823435938506
C            6.33224300624217        2.93656307227665        0.47530479999012
C            7.23981225867859        2.02445312961843       -0.02285548065830
C            6.79829654380746        0.80990389253918       -0.50533132189249
C            5.45408784496718        0.51260332846426       -0.49302291138656
C            2.10855066744790        1.95864356624544        0.19807033310448
C            0.73925976615340        1.58733268532440        0.18453999882823
C           -0.26003688223297        2.55878855503108        0.40680233433395
C           -1.57174465172460        2.21648105658530        0.39869943699106
C           -1.95739342780979        0.87818068642346        0.16667793661572
C           -3.30759446100092        0.47613854782153        0.15070830854046
C           -3.64136604743528       -0.82666612196687       -0.07539549241992
C           -2.64473476303539       -1.78084499698978       -0.29405173258182
C           -1.33116045916080       -1.41805884073170       -0.28390995085167
C           -0.94873690200207       -0.08562959650243       -0.05501272595609
N            0.37476630804304        0.30757103428101       -0.03905407013356
H            4.29410576316620        3.35329443921545        0.89804996458308
H            6.67752222522359        3.88320897373987        0.85780671754996
H            8.29154440785697        2.25930100948766       -0.03209901687050
H            7.50527556437609        0.09385947499544       -0.89121476076799
H            5.10039781138999       -0.43434987257086       -0.86387012730323
H            2.35159680542888        2.99069784838663        0.36245879261504
H            0.03329083391736        3.57911219369760        0.58450892212992
H           -2.33147548715889        2.95938517479817        0.56927686728171
H           -4.07421338849416        1.21237964076211        0.31987934905358
H           -4.67696696746973       -1.12427311348304       -0.08559602696340
H           -2.91840133763152       -2.80804894129109       -0.47115819320972
H           -0.56031603013839       -2.14915406134027       -0.45112119651926
