50
 energy: -10.193588000773 gnorm: 0.000540599834 xtb: 6.5.0 (97a52f5)
F            0.88791424960228        0.18174015079790       -0.62818746471023
B            2.21570656386581        0.30128511864499       -0.27940232836558
F            2.99309521591819        0.58610177753615       -1.38499984418541
O            2.38316673334752        1.37106211296659        0.71536583030111
C            3.53481313591950        1.38012001260287        1.43780766767808
C            4.33816111817752        0.23062726368232        1.52740318125900
C            5.52495102728464        0.26731424217985        2.28691120632921
C            5.87933528085229        1.38393311779234        2.98094174835972
C            5.06333799001853        2.53025519468663        2.96822308913961
C            5.35693102124162        3.64683504608786        3.80559820941201
C            4.47838953286581        4.74352999541518        3.82540816342757
C            3.35658748770525        4.75280360082357        2.97196276082873
C            3.07928104215095        3.69082191371096        2.16591804775537
C            3.90018233328137        2.54784262080392        2.17086869758935
C            4.65760673702998        5.73046721007134        4.83561611572917
N            5.68807741572244        5.72232705406114        5.64782858394688
C            5.77452566366832        6.54210566955408        6.81576963477440
C            5.38529679602553        7.87644390313003        6.78680464939314
C            5.38565093380746        8.62953559009053        7.93933322601172
C            5.77518726952931        8.06473371006874        9.13690949684952
C            6.17150491367757        6.74390393642263        9.17818533887687
C            6.17110200122349        5.99011383749734        8.02750891815313
B            6.89961391933712        4.88174265468587        5.19913580759380
F            7.55561644804346        5.61130063486143        4.22687694310568
F            7.72383875889713        4.64533025877869        6.27790140779990
O            6.44434846376392        3.60913428918802        4.62077866693622
C            3.83489314545065       -0.98593317946679        0.98637649566002
N            2.72380322362481       -1.03777728101236        0.29063350912773
C            2.07793029094670       -2.26223842682741       -0.06610616878646
C            2.81108246288637       -3.35634497190044       -0.51164602937114
C            2.18930072560846       -4.55816090811982       -0.76558928233119
C            0.82766536897438       -4.68713667016647       -0.58095136496566
C            0.08684696691911       -3.60713755984496       -0.14714318012851
C            0.70698076238533       -2.40588675366619        0.10765680581189
H            6.13636288205087       -0.61733344629120        2.33971805823641
H            6.77054608571428        1.39822851141674        3.58479046841307
H            2.69628936890422        5.60302849312072        2.99012924271076
H            2.20444522587426        3.68857031325362        1.53840639699294
H            3.86037978256165        6.42502120858852        5.02983182678516
H            5.08609924581771        8.31425121725233        5.85055913897114
H            5.07618495252540        9.66153453365115        7.90758849463489
H            5.76914327985873        8.65393728102474       10.03933793410680
H            6.47734801667050        6.30068945596402       10.11199105882652
H            6.47745488423734        4.95824695334125        8.04730812716342
H            4.30642055816151       -1.91116095853184        1.26435957491953
H            3.87173937453945       -3.25100756984380       -0.65870279003748
H            2.76793317095153       -5.40208180954185       -1.10447337220644
H            0.34324304777957       -5.63042051301539       -0.77392250006530
H           -0.97697335325265       -3.70495423514179       -0.00343795166145
H            0.13918847787214       -1.55657460040879        0.44714775321529
