58
 energy: -11.977072726995 gnorm: 0.000580512321 xtb: 6.5.0 (97a52f5)
F            0.90623760164124       -0.55927211578286       -1.97085065635518
B            2.19457268486576       -0.19689253797118       -1.61976933811134
F            2.73669218697815       -1.09441838735135       -0.71950713810914
O            3.03152892213502       -0.15592148298033       -2.84380027531692
C            4.26609682971095        0.40251269813966       -2.65803886172395
C            5.38864251329838       -0.09330066454785       -3.36173335396238
C            6.63431088456634        0.37743783575959       -3.11123449992542
C            6.85341810036959        1.35140626664130       -2.10572509210862
C            8.15207692004392        1.78925341332431       -1.77966195727058
C            8.35415049826208        2.68651183647710       -0.77251186750901
C            7.27116284447686        3.17613590869716       -0.04041141340526
C            6.00203750269143        2.77888572720996       -0.33921649089146
C            5.74602953788712        1.88039362190929       -1.39679959356017
C            4.42038198399670        1.46611917642860       -1.75745652052277
C            3.19837962298297        2.04673764591821       -1.20307886743904
C            3.04117264132032        3.41530726631048       -0.84482808892546
C            2.04598321274066        3.73862003292385        0.09672819494045
C            1.03294283643954        2.80737644050841        0.39381281876983
C            1.13717184989406        1.51130900131275       -0.12780566021322
N            2.16771810672348        1.18876887804650       -0.93599911053454
C            0.19106145161257        0.45183575225774        0.34897410097662
C           -0.26135112777929        0.70217320413164        1.80105637739961
C           -0.76655013631215        2.10696085248966        1.96058956226235
C           -1.88012849317170        2.38896923322221        2.73354209204074
C           -2.42228732571780        3.65735539419408        2.75082841554207
C           -1.87256122443718        4.64932796681776        1.96662631771718
C           -0.76215652461657        4.38489252039360        1.19674591422527
C           -0.15588321536299        3.12927366649490        1.21885712263258
C            2.24292711530179        5.00033361548921        0.90123123479528
C            2.64391084865005        6.19984797490596        0.03394305851479
C            3.63348746689831        5.84869595852601       -1.04271783145871
C            4.33693483693921        6.86988985705344       -1.66187159960040
C            5.16724700472142        6.61892030883598       -2.73265223308836
C            5.27998975958073        5.33617274393259       -3.21865651727188
C            4.59043516282684        4.31126847243812       -2.61386270691001
C            3.79501358535600        4.52402450392731       -1.48704354416534
H            5.22892940713260       -0.86901488007192       -4.08933068317343
H            7.48011303478737       -0.01312574997386       -3.65014840596285
H            8.98832722441493        1.39732039524396       -2.33255878440205
H            9.35287118571587        3.01180774188289       -0.53176645744443
H            7.44207612250097        3.87245752590179        0.76415226053706
H            5.17652219445243        3.14943397868497        0.24100831094476
H            0.67814155884049       -0.52621479694688        0.25695054716294
H           -0.67596549103676        0.42230420896485       -0.32001784455280
H           -1.04123727531959       -0.01067562026244        2.09499554871954
H            0.57589235316819        0.54094404418854        2.48949092835929
H           -2.33531931969261        1.60023980070737        3.30771957476035
H           -3.29120082422392        3.86469921319793        3.35352313232623
H           -2.31962001284791        5.62985812638673        1.94757199665932
H           -0.38663573637202        5.14077471366733        0.52903207016250
H            1.36608964290778        5.22675167324381        1.51406457588153
H            3.03934325796889        4.80557574676723        1.62992245614429
H            3.06192899616150        6.99974814587614        0.65797817345724
H            1.75247539909527        6.62824563546790       -0.43886325962660
H            4.21070851382689        7.87892357737640       -1.30813894179217
H            5.70573724850372        7.42594447818523       -3.20198220507570
H            5.90463231631468        5.13601989887890       -4.07402889650946
H            4.65592373818644        3.32445955654652       -3.03289608801062
