52
 energy: -10.588409927262 gnorm: 0.000781134412 xtb: 6.5.0 (97a52f5)
F            1.43270739440468       -0.28138200457469       -2.03675094627787
B            2.60347115242351        0.23622337781383       -1.51112435489233
F            3.07441587817575       -0.54546174094294       -0.47344967877541
O            3.62410870756834        0.29041963060620       -2.58274841987326
C            4.71967453915204        1.06836299390081       -2.31019376085415
C            5.99355290673451        0.69612988359010       -2.74764451691940
C            7.09708862894527        1.43345239352576       -2.39869160252832
C            6.95812147985234        2.55470533896967       -1.59954662023154
C            5.70986342446556        2.95357946520693       -1.18080409125248
C            4.56718674748039        2.25323263684449       -1.56188256913919
C            3.21883184378565        2.64303424078142       -1.14976581059556
C            2.85411210080874        3.97146023225389       -0.80233351161632
C            1.76110606489794        4.14940957142468        0.06739005186063
C            0.86308090687703        3.08729086918799        0.28436367550636
C            1.18441992644933        1.82086491624919       -0.21943683079813
N            2.31550283323447        1.64240608200308       -0.93472318681801
C            0.34726838906021        0.64452043416513        0.18129350930952
C           -0.23991172179467        0.81578195540429        1.59583092659717
C           -0.93327341039932        2.14110048377395        1.72152671687231
C           -2.12140723075775        2.26959587992602        2.42076524686104
C           -2.82182729220136        3.45758092534204        2.40613069711018
C           -2.35546603315993        4.52007047612131        1.66165056560899
C           -1.17345204437885        4.40831244791463        0.96441191941114
C           -0.41392595358921        3.24071021552274        1.02294204925468
C            1.74740967616520        5.40197558482818        0.91166566098786
C            2.09209714175139        6.66989365775632        0.11913429347675
C            3.15586102242081        6.46218279291595       -0.92413312199617
C            3.74043208108999        7.57535339220814       -1.50787878951812
C            4.61823006259322        7.45248016470876       -2.56292313730797
C            4.89973633159473        6.20461367535413       -3.07058825320702
C            4.33163078447958        5.08908850766028       -2.50032291390397
C            3.49535180110094        5.17830771495058       -1.38667144812486
H            6.09177231755828       -0.19574424386059       -3.34024693911972
H            8.07572375504108        1.12856219505791       -2.73139761913644
H            7.82910093718356        3.11779380029840       -1.30759758410583
H            5.60563891078951        3.81928330281860       -0.55018664390418
H            0.95653013554791       -0.26463214512591        0.12344933549603
H           -0.45717041394817        0.51644491763983       -0.55087188387296
H           -0.94048181357587        0.00472547944952        1.82820706040217
H            0.55806255723788        0.75493913712204        2.34435769194584
H           -2.50672476662939        1.42325495125034        2.96302647519771
H           -3.74611681142309        3.54594099314156        2.95319689012736
H           -2.92216441760429        5.43571617562108        1.61745485101439
H           -0.85425822954943        5.21396412366606        0.32632015486384
H            0.79937663670500        5.51419507431389        1.44470961140183
H            2.49054221739691        5.26673456172941        1.70715734781100
H            2.41263207144995        7.46851595315490        0.79998987097638
H            1.19118064162948        7.04927356778320       -0.37719943200830
H            3.47849788633443        8.55347354400432       -1.14186454873533
H            5.05943953182393        8.33022907564265       -3.00599820333273
H            5.55687186172223        6.10280911614521       -3.91890701408503
H            4.51552885307858        4.12722422475664       -2.94301116916175
