64
 energy: -13.808232672101 gnorm: 0.000666563084 xtb: 6.5.0 (97a52f5)
F            3.41776125958550       -0.37273750973388        2.94168887687652
B            4.48327592751590        0.23796616961091        2.30758961205423
F            5.21111534792955        1.00963386938380        3.19581969021674
O            5.37124380704766       -0.77118367778040        1.69904067048356
C            6.28920172909428       -0.30498597234451        0.78907978765951
C            7.49159764235397       -0.99112648999330        0.60491180708427
C            8.42944113953879       -0.54040605973166       -0.29027361713974
C            8.18955055236762        0.60502254266379       -1.02628211881858
C            7.00537792160944        1.29072953232724       -0.87355279317484
C            6.03409105706142        0.85249743805232        0.02173783427941
C            4.73815479608325        1.50650186629508        0.16530893502745
C            4.25786326697530        2.42832600646739       -0.75289165682504
C            3.00474934093543        2.99844342253361       -0.59771249344317
N            2.50616957913857        3.93895515070295       -1.56295440217129
C            1.91392389060746        5.18542925708411       -1.28078641177339
C            1.70147117994822        5.84753772324093       -0.07147317375783
C            1.08704577533297        7.07265580883639       -0.08652021503255
C            0.66661352059367        7.68093077292300       -1.28939180736947
C           -0.00577302182385        8.99903158150487       -1.26971256765051
C           -1.10430436454106        9.25199829467875       -2.09007046284716
C           -1.72788442602118       10.48006577022778       -2.07577801412056
C           -1.26824495131616       11.48034946676837       -1.24363616653395
C           -0.18252822405631       11.24866405935873       -0.42387153745726
C            0.44290991618689       10.02137329553479       -0.43493106358059
C            0.88926149006041        7.02483615524084       -2.49225130677935
C            1.51487071629936        5.78218731535806       -2.48883759864514
C            1.87816899683834        4.87703779076607       -3.55384764873771
C            1.71767411594849        4.94726329184258       -4.93419156188418
C            2.15198531131685        3.89350713075211       -5.72656112845956
C            1.98306809657760        3.93951069590161       -7.19589045551725
C            0.81503513985492        4.44383578626646       -7.76609172761794
C            0.65553012787362        4.47877993825603       -9.13386407622810
C            1.65769196199653        4.01298737491747       -9.96022283159179
C            2.82199483959515        3.51200951386732       -9.41451733635267
C            2.98470507679321        3.47529214593963       -8.04715555054214
C            2.74529579524688        2.76978386694423       -5.11081345027014
C            2.91099142297163        2.69175802088184       -3.75261749948864
C            2.48338496260202        3.75669417177768       -2.95957942052348
C            2.23453889798437        2.63081972506362        0.49913473769481
C            2.72717569341665        1.72096234467262        1.39574764597362
N            3.94189837112991        1.17530353974240        1.21699324224678
H            7.66870018534733       -1.87742036512612        1.18783928199175
H            9.35472222541979       -1.07805585403702       -0.41743320779596
H            8.92986428457932        0.95879378072383       -1.72479279195752
H            6.83457949835004        2.18222175333123       -1.44995457891015
H            4.84752669690227        2.70735380581428       -1.60473875450256
H            2.02430211023029        5.39511803708722        0.84878310177654
H            0.90295172391025        7.58606157802160        0.84094504881967
H           -1.47186769165999        8.46841185492259       -2.72979171592949
H           -2.57693566568683       10.65968763033504       -2.71474848474559
H           -1.75619455280531       12.44116766773345       -1.23452974345393
H            0.17803873458303       12.03049246561134        0.22432523384935
H            1.29823377475643        9.84661460833017        0.19447945995687
H            0.59424928431055        7.47432463759200       -3.42187623470947
H            1.26832105384439        5.81556720437057       -5.37827757180085
H            0.02629043068591        4.79374594897826       -7.12291313544909
H           -0.25497215660611        4.86779849009827       -9.55940617674133
H            1.53119127100521        4.03986495631742      -11.03009479202972
H            3.60590628685702        3.15028802729336      -10.05949911942575
H            3.89894057279479        3.09712943704839       -7.62352544837190
H            3.05730534955695        1.94839022570296       -5.73181414833583
H            3.34959808513234        1.82495022290031       -3.29231700450492
H            1.25335234374549        3.05408229432906        0.62226458709741
H            2.15658247605306        1.41968046588281        2.25743344988208
