44
 energy: -9.438565599112 gnorm: 0.000743762481 xtb: 6.5.0 (97a52f5)
F            1.80264518746871       -0.66053826048520        0.71848061254927
B            3.06848429369021       -0.12630999820254        0.57617870512624
F            3.62336530137688        0.16597604759451        1.80810159022216
O            3.94828959011082       -1.06412775522127       -0.14417336345700
C            5.11694580951203       -0.55190234470652       -0.65160932870662
C            6.22309135711511       -1.38668565131355       -0.82061009024390
C            7.40634168269934       -0.89594076380064       -1.31381216483973
C            7.51421708956467        0.43946203652693       -1.65369991385195
C            6.43312998319970        1.27953909364489       -1.51029959712697
C            5.21951030471015        0.80724450027782       -1.01923435100894
C            4.03143483234446        1.64553774819143       -0.91083587568957
C            3.92880387242280        2.88263630786128       -1.52834213204195
C            2.77352003699296        3.63814636167909       -1.41533827438531
N            2.67561498021185        4.91282637341139       -2.07212732593237
C            2.34603781186322        6.14089467905773       -1.46542813271973
C            2.05248742786390        6.45498554838134       -0.13909001852000
C            1.78368481417071        7.76147592972815        0.18539423862746
C            1.80440434464936        8.76446006596563       -0.78764064523580
C            2.09826435793450        8.47357865146679       -2.09747580997777
C            2.37489334749126        7.14998002688715       -2.44294744059852
C            2.73441761732508        6.52569560894380       -3.69349779984087
C            2.91293756874942        7.03178606545859       -4.98189520877515
C            3.26224640874100        6.16412906250292       -5.98779029681253
C            3.43568040365893        4.80068171298623       -5.73470471667749
C            3.26463518349857        4.28821170092752       -4.47290492248428
C            2.91539107704389        5.15590162021889       -3.43891725904858
C            1.71494764635712        3.13614666352032       -0.66828301948920
C            1.83443555685284        1.91042083605051       -0.07006479522611
N            2.96166178510110        1.19158678984630       -0.20450301034797
H            6.12831312177999       -2.42222210999623       -0.54600320054201
H            8.25352760537188       -1.55133582791255       -1.43283996546567
H            8.44592009089306        0.82284535477107       -2.03597841908984
H            6.53407902748491        2.31705255946996       -1.77386283320007
H            4.74052736427324        3.27169057783645       -2.11227149626620
H            2.04910180076950        5.67965191026787        0.60577902138624
H            1.55559509441952        8.01940759195697        1.20637084522021
H            1.58993587095861        9.78168747766930       -0.50408862645259
H            2.12203885491936        9.24129830847409       -2.85021644800849
H            2.77576378991398        8.08165102287233       -5.17031495822075
H            3.40341437207033        6.53883535906914       -6.98814579895796
H            3.70632458614659        4.14230746647408       -6.54353078881351
H            3.38765536654195        3.23911401333207       -4.27226837662197
H            0.81003747151366        3.71111670350764       -0.57996103345114
H            1.03481591022562        1.49293093480601        0.51791242499521
