90
 energy: -16.782356096684 gnorm: 0.000323470357 xtb: 6.5.0 (97a52f5)
C            1.25401349692414       -6.55350505646979        6.81463510613853
C            2.11657663516817       -5.51895987815355        6.07175147205493
C            2.20283330172223       -5.96025037762654        4.59778873074437
C            1.40951505650116       -4.15537799286763        6.17801413562354
C            3.52699281950496       -5.41247179949222        6.66577974095158
C            4.60642508536351       -4.68035595224022        6.10203438821374
C            4.59677328496784       -3.95601036760709        4.83699559467912
C            5.52622582342309       -3.97807523142541        3.84052517515108
C            6.72430727236609       -4.77212929296938        3.74517244988515
N            7.15461479350421       -5.58810923783353        4.77520229679390
C            8.37212359602444       -6.10454163976844        4.48993371158927
C            8.75650937291528       -5.67591221134857        3.20243334799932
C           10.06085744690715       -6.03167601579968        2.73965485867072
C           10.94084691323567       -6.70107639922328        3.55079635835948
C           10.58945646639514       -7.06872958207831        4.88659205673954
C           11.25006171374190       -7.61248751560625        6.01795203305011
C           12.69913574249873       -8.10239226972817        6.12974269980666
C           13.48433856862945       -7.19549670399322        7.09588158522917
C           12.71596863638419       -9.56408346044323        6.61924577051498
C           13.42204389419162       -8.06853592485192        4.77146256420234
C           10.28943719553530       -7.58812648651960        7.06779169398204
C           10.49265394321816       -7.91815301822147        8.45494801923052
C            9.57051889017818       -7.89079357343302        9.45504163273372
C            8.17564733171141       -7.49421173951799        9.37937267696658
N            7.71742503765904       -6.40709999686354        8.65113029308023
C            6.35455172007691       -6.40846090597440        8.64979087951647
C            5.89934395224244       -7.47172633139833        9.47103121490888
C            4.49585605284863       -7.73878606159394        9.51925895679749
C            3.62176971155992       -7.07945883037736        8.69860521559373
C            4.08019548146418       -6.09119057357506        7.77829211226207
C            5.44696885350774       -5.69642319425644        7.81698512539564
N            5.72697382261431       -4.79757112126186        6.86480341701877
C            7.05983455741261       -8.13493349183312        9.96560372563716
C            7.14438316430237       -9.37051637088619       10.87366856224673
C            5.75958228383549       -9.95931196058380       11.19152674063182
C            7.96507428929627      -10.47580047784082       10.18066711863976
C            7.79995935294420       -8.97801969155022       12.21092598524334
N            9.09550991646067       -7.13039483910485        6.61698666552051
C            9.27213708509261       -6.79332156759919        5.33658614738716
C            7.69838667581304       -4.85401717381195        2.71171638924642
C            7.73533709845830       -4.21461339672797        1.31508782036593
C            6.46227437741533       -3.42408468594210        0.96774030412677
C            8.92623930826018       -3.24165441997459        1.23075831544212
C            7.88229663986956       -5.32884697692113        0.26018177499206
H            0.27250622885278       -6.64228831927429        6.34909356717688
H            1.09386742096047       -6.25585141903938        7.84998205133267
H            1.71797503050785       -7.53895089691107        6.78914669846951
H            2.72435883975330       -5.22754871997909        3.98602477396407
H            1.20834210666513       -6.09285686402664        4.17260148271228
H            2.73498080140880       -6.90723432797103        4.51134515652980
H            0.39641218842501       -4.21126197065630        5.78056431992952
H            1.93809190795941       -3.38118349172342        5.62706861478046
H            1.34546657993003       -3.83706229892500        7.21821544345938
H            3.73078250937511       -3.33713927080258        4.66496503203424
H            5.32063198786527       -3.33525150182925        3.00725733521312
H            6.78136525969703       -5.61343584999973        5.71608961561485
H           10.36979052935659       -5.74574567807420        1.75146824122829
H           11.91801869917427       -6.93193058759887        3.17263435251798
H           13.05966359109482       -7.19519348325006        8.09663903811830
H           13.48350388136380       -6.16604251884214        6.73840281576218
H           14.52101778244691       -7.52136043469574        7.17697911437725
H           12.25685080634990       -9.67696936655161        7.59800284236444
H           13.73704601520099       -9.93801010372888        6.69002121207753
H           12.17201636615420      -10.20460254962587        5.92545718962639
H           13.52593570735614       -7.04627040694593        4.41062277190430
H           12.88719743529614       -8.66065746130581        4.02956054930764
H           14.42651458533405       -8.48246085567588        4.85925051611683
H           11.48123001768434       -8.23867803482005        8.72618393236944
H            9.90834168687849       -8.22745412996919       10.42139740274458
H            8.29398267956521       -5.86797107627879        8.00198330366076
H            4.11211666007813       -8.48837337412156       10.18373645532389
H            2.57906106831699       -7.32938364410731        8.74328938412662
H            5.24089554530206      -10.25188071746109       10.27922588524879
H            5.15018171015233       -9.24604442672350       11.74492891193872
H            5.85404352841209      -10.85059504515228       11.81182648715725
H            7.52722109132586      -10.73041278567436        9.21583605571626
H            7.98968514879142      -11.38019326294639       10.78808531189141
H            8.99473011513980      -10.17088951367944       10.00909475765321
H            7.21641575012050       -8.20534442234503       12.71098903133773
H            8.80705405935994       -8.59249504209982       12.07227847906183
H            7.86332100944048       -9.83637791246552       12.87930052135624
H            6.36789767771575       -2.53726365826904        1.59296739576153
H            5.57284505228699       -4.04520673233304        1.07005811980946
H            6.49826518095964       -3.07778187171509       -0.06521604181084
H            8.82729474126748       -2.44967084355527        1.97272398344700
H            8.97933219931412       -2.77612707430828        0.24688330208790
H            9.87336895163791       -3.74507761349758        1.41025556097280
H            7.03518709053351       -6.01285874460714        0.30653466476266
H            8.78675762719995       -5.91326834421212        0.41153326356355
H            7.92247848584397       -4.91119955690862       -0.74554376619533
