39
 energy: -8.174843058172 gnorm: 0.000885911697 xtb: 6.5.0 (97a52f5)
F            0.80289953424452        0.03414827406885        0.04251987367180
B            2.18420630351798        0.01259798214007        0.00124668122727
F            2.63304490233281       -0.04858768948776       -1.30441891822469
O            2.67469794907762       -1.16096129305541        0.73933767963968
C            3.55104798781588       -1.07699174035206        1.78434364254464
C            4.01578970992892       -2.24271431607265        2.39451248573550
C            4.89623444476363       -2.18426619261404        3.44696923186728
C            5.33415115392766       -0.95995912521033        3.91714738115606
C            4.88672214733687        0.20144288434615        3.33037340767987
C            3.99670938148793        0.16902556754501        2.26429927641017
C            3.52813814376117        1.39768602245489        1.65197990486100
N            3.96770036807998        2.55767059178779        2.18178232703244
C            3.54598881561517        3.68608899846421        1.64321634504018
C            4.00388280103223        4.94380065487388        2.26997152613291
C            5.34330781598472        5.09254795955270        2.62560889304111
C            5.79012124386258        6.24975332432947        3.22123179073110
C            4.90734886236005        7.27747713291556        3.48486857426105
C            3.57268491802520        7.13990097546450        3.16064034877661
C            3.12157382705959        5.98416758017945        2.56521208201927
C            2.70111456529731        3.70840080089866        0.49199718131182
C            2.33144607216364        4.88783215423410       -0.17527728038184
C            1.52799516459717        4.84387000231786       -1.28469527612007
Cl           1.10787337603992        6.30846397369717       -2.08498285946097
C            1.06244738655707        3.61669602306649       -1.77203369295835
C            1.42390095879364        2.45913316287996       -1.15306653203637
C            2.25732253494797        2.47578420259506       -0.01922242911571
N            2.69144470126095        1.33503212337381        0.60527263617808
H            3.66767373063023       -3.18880974283074        2.01912279766252
H            5.24662806717318       -3.09380516901809        3.90708316631776
H            6.02517174174989       -0.91523638706624        4.74281158814439
H            5.22254012888316        1.15819245643357        3.69071555442428
H            6.02547303069448        4.28549446336941        2.42102280359283
H            6.83068582574642        6.35286454565205        3.48311998194166
H            5.25840918375881        8.18385920754669        3.95021066827025
H            2.88113606640424        7.93760632568866        3.37836470877962
H            2.07427503542801        5.86336375596613        2.34689286080314
H            2.69876690621020        5.84114882074012        0.15680498698267
H            0.42906194363287        3.60696059754463       -2.64281038810522
H            1.08492326981645        1.50928109157880       -1.52702300983358
