71
 energy: -15.172574546451 gnorm: 0.000926643881 xtb: 6.5.0 (97a52f5)
F            1.21250820009947       -0.66924511146685        1.36964204213509
B            2.52902406097209       -0.50852780821494        0.94872672143155
F            2.67230324099336       -0.61577859581223       -0.42931817185653
N            3.00653978210515        0.89286882044614        1.37656346029849
C            2.59863034040103        2.09466467062110        0.84929850009291
C            1.65234180632993        2.35294283823734       -0.22941760676572
C            0.71699085961334        1.39842666684168       -0.62692508091005
C           -0.17481681515597        1.64969231639373       -1.64289353977800
C           -0.15777871782165        2.86832983453547       -2.29060952432388
C            0.75691416505706        3.83177962634141       -1.91534125429662
C            1.64967657503989        3.58040528724412       -0.89824974203246
C            3.33272158435729        3.07851446363744        1.52846509522463
C            4.18995229376876        2.47446319299624        2.44338025626401
C            5.18132988165069        3.21268041480706        3.24584254782869
C            4.79178714900447        4.30192303032003        4.03138539033367
C            5.71642598918280        5.00555341104554        4.76805380210070
C            7.05091495567803        4.65056777654409        4.72859530195868
C            7.46010295062238        3.59212847545350        3.94106940894591
C            6.53986185627038        2.88422134017684        3.20353864181880
C            3.95809233171435        1.05015676304729        2.36182938456379
C            4.52945729699800       -0.01114578754263        3.09224421814800
C            5.48927414834140        0.24109664245888        4.19016852032698
C            5.10092536309986        0.94496940584543        5.33330165183769
C            5.99513695220654        1.18267410157942        6.35167876914625
C            7.29451093323555        0.72558687212737        6.25430994330228
C            7.69885772793641        0.02894470448169        5.13270170337560
C            6.80936369587626       -0.21120711258943        4.11077712974845
C            4.19038418460759       -1.31976032568500        2.69299036764453
C            4.65555247715979       -2.60206553246473        3.17374451122181
C            5.42718658222028       -2.91376071153946        4.38678897214829
C            6.49429832450044       -3.81592006241627        4.34020404953496
C            7.21001682338523       -4.11911222104623        5.47540301529405
C            6.87107047161790       -3.54322665623912        6.68455071870714
C            5.80542170200636       -2.66745795751302        6.75674079284163
C            5.08723653878821       -2.35983067254002        5.62476184249465
C            4.15231781054294       -3.56770252744027        2.30571819418442
C            3.33052595541216       -2.95521286801821        1.34769687187985
C            2.59417552905108       -3.65685107794020        0.30252779638810
C            2.99393957296362       -4.92748445665693       -0.12165281689483
C            2.29177200035311       -5.60152505279675       -1.09470327598732
C            1.17233990225669       -5.02919142359468       -1.66650048183520
C            0.75677962568331       -3.77713706779581       -1.25880523538708
C            1.45803597029013       -3.10308757037403       -0.28699634969312
N            3.37074530661266       -1.60993334861992        1.62280854602798
H            0.70156825222204        0.45461477118023       -0.11832655652302
H           -0.88706330871913        0.89481563888235       -1.93310402178219
H           -0.85550694247243        3.06706422256777       -3.08759602071769
H            0.77315995345875        4.78262402654752       -2.42204672855342
H            2.36707819172701        4.33245719393028       -0.62213515207852
H            3.27658731702120        4.13813244685312        1.35387401826460
H            3.75112516730192        4.57493309854815        4.06218130071068
H            5.39882845822323        5.83564596860484        5.37756225435185
H            7.77287647456682        5.20170570280612        5.30857048712306
H            8.50195315619993        3.31896816207909        3.90588593068434
H            6.85693494131848        2.06701128575063        2.57935806869615
H            4.08801958229431        1.30180361634880        5.40429418237469
H            5.68121821943502        1.72901375802958        7.22589542542969
H            7.99316231658960        0.91327892693807        7.05300812395200
H            8.71251827181560       -0.32896945829781        5.05795044961298
H            7.12031155652859       -0.75478156804042        3.23548713602955
H            6.75935648541396       -4.26027920504560        3.39649956259401
H            8.03806129677359       -4.80677364354526        5.42107475955693
H            7.43539284268424       -3.77996653771223        7.57161483127514
H            5.53792913984063       -2.22206202004424        7.70088582200383
H            4.24962509820688       -1.68647694593274        5.67993935596760
H            4.30345277470929       -4.62710985565837        2.41348139043797
H            3.87138626015952       -5.37433778927993        0.31208922230190
H            2.61685858592110       -6.57873189967775       -1.41260774318253
H            0.62454073491219       -5.55828309234530       -2.42873915831252
H           -0.11834939069827       -3.32929349967324       -1.70065438131426
H            1.13183717953767       -2.13487001067839        0.04195235360963
