61
 energy: -12.999656152603 gnorm: 0.000541540233 xtb: 6.5.0 (97a52f5)
F            1.21123600671957       -0.59731141360877        1.29249374807185
B            2.54124332455629       -0.47648372410903        0.90414715753019
F            2.71635300439010       -0.64277871735172       -0.46374725738914
N            3.02399816332981        0.94358015190636        1.28492893889905
C            2.63444903380067        2.14413455577713        0.75073736428390
C            1.71781914748960        2.39513066327223       -0.35401048268292
C            0.81284749560020        1.42547811915547       -0.78403086455988
C           -0.05242625938018        1.66630844898153       -1.82522328363885
C           -0.03801201712259        2.88918522189711       -2.46571306674344
C            0.84710941198742        3.86752950686955       -2.05769871261958
C            1.71338855096649        3.62674529251069       -1.01560137746871
C            3.33690176409406        3.13324333189973        1.46699464535884
C            4.15512902186319        2.53390664886112        2.41668603464924
C            5.04799797659026        3.23951375716986        3.33812339430437
C            4.71585703909052        4.51374310457720        3.80900451798507
C            5.54844767738511        5.18817993770105        4.67224086233565
C            6.73601354486063        4.61390834879102        5.08121804941877
C            7.09118198585793        3.36260055325164        4.61688974927198
C            6.26163200157277        2.68329045545823        3.75448041245691
C            3.94448888166509        1.11081413000948        2.30135005388648
C            4.49695181707985        0.07071611872755        3.02292784126879
C            4.18834736222358       -1.23081747364625        2.67796368115386
C            4.72532223862679       -2.47301677152573        3.18041902786523
C            5.65574972269700       -2.65584992819442        4.29485767120086
C            6.56277346200407       -3.72005959283070        4.29672589211207
C            7.44294802179884       -3.89623246420613        5.33964288248329
C            7.43533131313449       -3.02276387564645        6.40953007517842
C            6.53754903520707       -1.97357097071505        6.43525385117320
C            5.65633460546331       -1.79187040671507        5.39433615133933
C            4.20115741844499       -3.48326362891744        2.38273270761974
C            3.32551125532656       -2.92793857089722        1.42868546342898
C            2.58224631454618       -3.67722988914949        0.42404321710210
C            2.96388968878172       -4.97396049789651        0.06827303035449
C            2.25908125641388       -5.68401727671126       -0.87706435844256
C            1.15550516527854       -5.12203544859390       -1.48828000545793
C            0.75839699239395       -3.84415575375722       -1.14823515545985
C            1.46210892142729       -3.13425506594588       -0.20399826750552
N            3.34505186177080       -1.57438372378856        1.63988431588166
H            0.79649565998366        0.47988534241803       -0.27748827830801
H           -0.74230931346191        0.90048229775129       -2.14014510650666
H           -0.71553417823060        3.08000493370957       -3.28173857965674
H            0.86088286376119        4.82158925045608       -2.55888320252874
H            2.40849023956842        4.39005489651734       -0.71357297451458
H            3.26737810616626        4.19294744369691        1.29859273710917
H            3.78626169643140        4.95923113770282        3.50019698576157
H            5.27299370291963        6.16643658394185        5.03100908601336
H            7.38710611220570        5.14395789779957        5.75688974324804
H            8.02409104062231        2.92015171799691        4.92589271909167
H            6.56834688172581        1.73232330076273        3.35743182745403
H            5.19427711036254        0.27027653647847        3.81106850359531
H            6.57838892378557       -4.39549331603080        3.45917143653410
H            8.14146691581204       -4.71674045079540        5.32119703803529
H            8.12576252636927       -3.16241538646278        7.22512302805796
H            6.52317515127964       -1.29928352223598        7.27590652395190
H            4.92883746325293       -1.00136313711508        5.44240379920854
H            4.39812986748106       -4.53266336067153        2.51050009457494
H            3.82938267511871       -5.41412596113174        0.53131223406387
H            2.57052815740919       -6.68098003295280       -1.14289564316090
H            0.60649992188916       -5.67906178237795       -2.22970936024710
H           -0.10315235092575       -3.40305804399758       -1.62217599896415
H            1.15081861852730       -2.14443949805170        0.07090548254342
