60
 energy: -12.867648282394 gnorm: 0.000898945096 xtb: 6.5.0 (97a52f5)
F            1.25554577080444       -0.54211498070766        1.22500334948880
B            2.57428414777664       -0.36849696553222        0.82810394151766
F            2.73769476318174       -0.49336420908858       -0.54306507913523
N            3.04020444069702        1.02283889774004        1.26394013043485
C            2.64555461586299        2.23949243580620        0.75861811264181
C            1.72484459708274        2.51228964263930       -0.33786319569160
C            0.81791743304061        1.55094104400481       -0.78157837138062
C           -0.04933538340629        1.80984948398444       -1.81653853491778
C           -0.03559411530448        3.04315610122098       -2.43607140318926
C            0.85028729393241        4.01395053719567       -2.01270861519050
C            1.71889527485725        3.75516354906387       -0.97689984937774
C            3.34502659670633        3.20453573140018        1.49450388694988
C            4.15466631878315        2.57350742527773        2.43568970821538
C            5.05764577532160        3.22983109217238        3.37100189977663
C            5.04053495958857        4.61593073892470        3.55130581831763
C            5.90741535368837        5.22384902590996        4.43090026666858
C            6.81356608119032        4.46850482775539        5.14959496218013
C            6.84910489049762        3.09802446523091        4.98515278115055
C            5.98192598116186        2.49004435380610        4.10892354390362
C            3.95461506967522        1.15597964820092        2.27895220839724
N            4.56825989145269        0.19579469057810        2.97280987331231
C            4.28442981669194       -1.03558167920221        2.54557621928490
C            4.88438469209127       -2.25335545383637        3.02590326532435
C            5.82671299547227       -2.38199674419846        4.12890154801548
C            6.53363595073969       -3.56731819029929        4.35020417418950
C            7.40728037755627       -3.67973491744695        5.40784470787005
C            7.59441466543539       -2.61836229955231        6.27204293412072
C            6.90367980875929       -1.43931483212631        6.07320089266040
C            6.03420817383626       -1.32417511033788        5.01462781818222
C            4.37998427261926       -3.29111025203583        2.24563510129799
C            3.46727845143338       -2.77337361118790        1.31735910673603
C            2.73164150984910       -3.54990019788114        0.32727278336296
C            3.14666910736802       -4.83644414067821       -0.02728408291361
C            2.44910349301812       -5.57336138962030       -0.95702317046355
C            1.32017738836102       -5.04862271182441       -1.55450898741314
C            0.89037251652955       -3.78123579132804       -1.21588304311486
C            1.58645423272339       -3.04472554643863       -0.28679664518860
N            3.43816842524677       -1.41599452116081        1.53477808924170
H            0.80353307343710        0.59619810221077       -0.29229405454127
H           -0.73977183317901        1.04976578966715       -2.14380601580833
H           -0.71425577011761        3.24768685560376       -3.24786092046658
H            0.86295682401019        4.97659521873510       -2.49706442864208
H            2.41448474066766        4.51300486392138       -0.66256520608967
H            3.26937537604523        4.26713420465048        1.35127186444432
H            4.33471356706712        5.21213562779121        3.00087491927728
H            5.87939282846994        6.29342006856687        4.56007364433253
H            7.49121051144337        4.94752837059171        5.83714880633466
H            7.55560170992232        2.50587738300399        5.54324266570001
H            6.01159673533259        1.42707686207914        3.97153411631182
H            6.39763443115115       -4.39611860894762        3.67825799486218
H            7.94711360289773       -4.59957993924374        5.56294983682155
H            8.27796118125165       -2.71027367321524        7.10007894469383
H            7.04510555830891       -0.61087662586798        6.74778183889334
H            5.48605383719676       -0.41450820761137        4.86265995531989
H            4.61724683095378       -4.33249421466583        2.36764912382089
H            4.03200135923304       -5.24761591702920        0.42458006626184
H            2.78638964021659       -6.56206730151036       -1.22211246322606
H            0.77715386171274       -5.62635579178194       -2.28428755641929
H            0.00786080719244       -3.37034454300935       -1.67827004839513
H            1.24747549245274       -2.06434867037020       -0.01124922874824
