58
 energy: -12.583051870409 gnorm: 0.000928835350 xtb: 6.5.0 (97a52f5)
F            1.23537277929471       -0.62094250425329        1.30910277261205
B            2.55268263060763       -0.45555642228764        0.90923504133887
F            2.71155684897986       -0.59653303093639       -0.45964008855122
N            3.02462371047985        0.93587457944725        1.32847432563323
C            2.63832600566265        2.14387428336991        0.79635439874576
C            1.72032101525601        2.39998495556883       -0.30737291306142
C            0.79419976212325        1.44322114523953       -0.71858741637894
C           -0.07133447213383        1.68788892904933       -1.75839457280252
C           -0.03502269088575        2.90140485634984       -2.41469960780709
C            0.87091193267235        3.86697643582362       -2.02378391404288
C            1.73749788165646        3.62265412950483       -0.98286146275920
C            3.33883619277606        3.11890380456933        1.51336422067411
C            4.14038670883522        2.50151894676863        2.46780620937081
C            5.02116206492441        3.21091628589717        3.37360506191899
C            5.87476127459761        2.49572091946703        4.21002565628295
C            6.71208487050980        3.15292268383577        5.06436343699305
C            6.67625142454752        4.52917034256835        5.06226495704892
C            5.81166121335748        5.16606341007977        4.20581906798857
N            4.99190709708917        4.55515249817021        3.36702245040790
C            3.93653528784819        1.07972082630248        2.34284407896241
N            4.54246761572046        0.12749255688619        3.05473113652652
C            4.25435457177702       -1.10802423411916        2.64117558908363
C            4.83900612110789       -2.33085283266646        3.13260862114071
C            5.77161225235984       -2.50609164934576        4.22765182620012
C            6.09658262508059       -1.42044929669128        5.03750970362897
C            6.96317137773166       -1.57494781105359        6.08076976868983
C            7.49220411948817       -2.82816417835365        6.29262915094668
C            7.12048215144840       -3.85183814628485        5.45587690566632
N            6.28161480052939       -3.73179000922808        4.44060172719492
C            4.33852478886261       -3.36914543651584        2.35371499334397
C            3.43812803816824       -2.85185566980129        1.41685930933266
C            2.70176565466811       -3.63157738091907        0.42870258416690
C            3.12085574181111       -4.91600934784407        0.07358919401332
C            2.42233166122523       -5.65599142189500       -0.85290263333684
C            1.28858825739785       -5.13638163939723       -1.44529136101269
C            0.85523642506794       -3.87077621290462       -1.10572467612407
C            1.55263639476200       -3.13088816245981       -0.18055976832080
N            3.41515485156716       -1.49297459119946        1.62720641638567
H            0.76340295050498        0.50366039645059       -0.20079770433193
H           -0.77779105731614        0.93219161502542       -2.06091953592196
H           -0.71236897904009        3.09446009144531       -3.23038672982652
H            0.90161666803036        4.81393774347448       -2.53758848805245
H            2.44931489258523        4.37527374261577       -0.69302808848821
H            3.27372899148678        4.18216315517074        1.36767043400124
H            5.87082819485002        1.42544043490115        4.15891121348671
H            7.37985303707354        2.61470648857741        5.71695256437168
H            7.31526814300859        5.09501661698248        5.72016549977946
H            5.77975697249486        6.24517932271736        4.19849995744184
H            5.64028419480099       -0.47159249917815        4.83702914502924
H            7.22243573789304       -0.74613191896861        6.71892854467755
H            8.18237947496605       -3.00188885348493        7.10186259628573
H            7.52946126161393       -4.83756826928631        5.61924230169457
H            4.58486482219642       -4.40686083334650        2.48966188833321
H            4.01068811976552       -5.32219781535792        0.52134815914716
H            2.76254347350813       -6.64348406924664       -1.11927210627976
H            0.74335290636082       -5.71792977104252       -2.17040455264777
H           -0.03118078892490       -3.46369974961178       -1.56415317411667
H            1.21299199716509       -2.15072743858540        0.09542788531752
