54
 energy: -11.442160168458 gnorm: 0.000512729942 xtb: 6.5.0 (97a52f5)
F            1.21434262574879       -0.54640102038295        1.27810959254243
B            2.52844775944184       -0.41234753140850        0.85372610463684
F            2.66540593750058       -0.59861179671749       -0.51250261374536
N            3.02355647272783        0.98595917319435        1.22333106316127
C            2.64623340414436        2.18215641318893        0.66059411226641
C            1.73099727875054        2.41340350138936       -0.45268039119639
C            0.78135615827123        1.46258913167839       -0.82016567193646
C           -0.08186607254672        1.68341475500142       -1.86745617235766
C           -0.01865452762970        2.86634325028514       -2.57556726699906
C            0.91161390470982        3.82543603317686       -2.22833859581088
C            1.77552862030867        3.60486684796133       -1.17970590472076
C            3.34754708453909        3.17164024302837        1.35582255603892
C            4.14077512927245        2.57164182752282        2.33232704679454
C            5.01020114409994        3.26489414866991        3.23379144155061
C            5.85004350417528        2.68765749945584        4.15188498133480
C            6.59504605545394        3.61533765697303        4.91122605199943
C            6.33661357836792        4.90754815713667        4.58541522257988
S            5.16363784086389        5.00203507883876        3.32552461273755
C            3.93218388974667        1.14799062362824        2.23708267015776
N            4.54113036639209        0.21227533102978        2.96855765100725
C            4.24516662609519       -1.03043168525027        2.58220157397821
C            4.83538370765582       -2.24302403111965        3.09275080678654
C            5.78571739038631       -2.36600286499786        4.15622277835418
C            6.25111714279036       -1.34624910772631        4.94689318355181
C            7.18309106056049       -1.75769531576633        5.92389994946906
C            7.44191464229780       -3.08995421657506        5.89320261420126
S            6.53159396828837       -3.86537815524063        4.65158897980716
C            4.31004324262790       -3.30134426473470        2.35327502753078
C            3.39999547400431       -2.80121747980726        1.41724652163763
C            2.64292332009877       -3.59960802255458        0.45807136568282
C            3.05916867685857       -4.88669710657984        0.11182946701963
C            2.34066733293795       -5.64414318507041       -0.78532462814223
C            1.19003590934173       -5.13855941802820       -1.35640931813388
C            0.75939553309309       -3.86996511227644       -1.02522512009588
C            1.47685498093130       -3.11324785043699       -0.12891792784915
N            3.38952750340108       -1.43759630563642        1.59145689701888
H            0.73232244375925        0.54642071684553       -0.26292463512559
H           -0.80755668846285        0.93294069675009       -2.13512715066137
H           -0.69366871726361        3.04051127113430       -3.39736131634291
H            0.96294102024800        4.74886110768813       -2.78171859804126
H            2.50667883996393        4.35117261841104       -0.92337188854636
H            3.28480513392818        4.23097099786168        1.18224087790412
H            5.93034139022486        1.62110807685699        4.26072349196543
H            7.30009043559442        3.32274956728564        5.67578328400678
H            6.79236911810011        5.76731728509564        5.03909490227044
H            5.91099820262650       -0.33279125394986        4.83102432319084
H            7.64245414088997       -1.07720242734889        6.62614287146601
H            8.11783945987758       -3.60798921322522        6.54706591550358
H            4.55264505156868       -4.33749852427466        2.50755537082630
H            3.96132585977850       -5.28262859567070        0.54376837591027
H            2.67841078789952       -6.63423322152507       -1.04430157925491
H            0.62917202022889       -5.73272982548279       -2.05913082841026
H           -0.14001131640613       -3.47287661678033       -1.46667092970251
H            1.13973615172984       -2.13022786151537        0.14032885217697
