30
 energy: -6.293159768504 gnorm: 0.000959387890 xtb: 6.5.0 (97a52f5)
F            0.76840625670921       -0.05718769349370       -0.45110174520329
B            2.10841862368242        0.07754428140628       -0.14183982382879
F            2.31924784538036        0.19054628415055        1.21966917335687
N            2.90853301138044       -1.11427990600626       -0.70248434601720
C            3.07060119072537       -2.47904342745702       -0.62728352616721
C            2.29738511918347       -3.37800284490290        0.19988224907699
C            1.19354672831999       -2.88729070791046        0.89756845052556
C            0.44031918531780       -3.71347812061821        1.69691323609720
C            0.77410622581705       -5.04829471401827        1.81745843658942
C            1.86319646493825       -5.55308238722848        1.13317937566448
C            2.61932309548743       -4.73041304206882        0.33050188176639
C            4.13710465095264       -2.72973476053628       -1.51083179825188
N            4.58580138655511       -1.60259087893923       -2.08532442900320
C            3.81705459623997       -0.59972392636265       -1.57689035834291
C            3.71213386166828        0.83135536577788       -1.69364399411619
C            4.44918283746933        1.71824106508770       -2.46682677433250
C            4.14743888879054        3.05523346925664       -2.38485011506522
C            3.13056251520247        3.49499559173186       -1.54543027686834
C            2.42015061181830        2.59136463334423       -0.79296498491576
N            2.71649807255695        1.28568894651982       -0.87810133907028
H            0.93567886157576       -1.84829641147152        0.78457066403154
H           -0.41138627724861       -3.32029331664452        2.22750869309010
H            0.18408153905612       -5.69632797167604        2.44466488536407
H            2.12162233616355       -6.59496098526251        1.22958880649150
H            3.46966525260694       -5.12486647184099       -0.19734240903640
H            4.55546866390164       -3.70211081963398       -1.72383397330644
H            5.23282584319876        1.35348251472800       -3.10718676057011
H            4.70207287430490        3.76779340014135       -2.97312890490600
H            2.90008929025872        4.54567813805827       -1.48369309295157
H            1.62888044798666        2.89751469586887       -0.13061720010117
