110
 energy: -21.238436457088 gnorm: 0.000214598316 xtb: 6.5.0 (97a52f5)
C            0.72453030849663        0.24270165114458       -1.24741359111631
C            2.26332938355231        0.27878749502556       -1.20183066699153
C            2.76301151716831       -1.03773153816450       -0.57498763727450
C            2.82314543189666        0.37613589660180       -2.63364705247350
C            2.71833571742430        1.50384070911319       -0.39277765947494
C            3.45995998524465        1.38957094592179        0.76808336793842
C            3.86920208719992        2.51602806531691        1.48636984027038
C            4.67257793450336        2.37306661737298        2.73242638217816
C            6.09241786042562        2.41935409162134        2.67970651960098
C            6.75520608214219        2.61276094026796        1.45458566449489
C            8.12049672805143        2.65156240781307        1.39270903986934
C            8.87810293701623        2.49822698071033        2.54242870469689
C            8.28439129572051        2.30228319972187        3.78651466655926
C            9.07202660477399        2.13181627797295        5.00137290413461
C           10.46361280834219        2.13773166045510        4.98130404659688
C           11.20494132692380        1.95792101791267        6.13678687989942
C           10.57847011931226        1.77713777415537        7.33827084267270
C            9.17437927177345        1.77614538651673        7.43469030475271
C            8.52991093640676        1.57912902897825        8.68855607781834
C            9.33081214069304        1.40263038650327        9.92515944913976
C            9.23179826708277        0.23185640552577       10.68126803230790
C            9.95979096237286        0.05099372048501       11.84113255178603
C            9.80186394214508       -1.25389242384825       12.63740305553396
C            8.32768000231504       -1.42140158906550       13.05198208652021
C           10.23061852432088       -2.44175532424382       11.75606723856604
C           10.66769976992336       -1.25550659033152       13.91247941947035
C           10.81576628373838        1.07127069549506       12.24049332568415
C           10.95395138238617        2.25063677819524       11.51782076372558
C           11.92064146691145        3.33662531032171       12.01665674357949
C           11.46722976631348        3.82129579034811       13.40631222040754
C           13.34240105939362        2.75114407587356       12.10973697823338
C           11.95819676967042        4.54911404653771       11.06561344047991
C           10.20195575174557        2.40194786625987       10.36767129573466
C            7.10772070086194        1.54771489258612        8.74246195405889
C            6.43634489998801        1.38801772609758        9.96908712461587
C            5.07097672931460        1.36080771555843       10.03010639461414
C            4.31627955880971        1.49756832878686        8.87737776812798
C            4.91416684359082        1.67484666744270        7.63315280935331
C            4.12666129971909        1.83322950593828        6.41658466182521
C            2.73472747294398        1.80303994281223        6.42830346118111
C            1.99573042653867        1.95314055530205        5.26611002879271
C            2.62467551772608        2.13686340855882        4.06604755887915
C            4.02795470291128        2.17864873383213        3.98451607202668
C            4.79493439481536        2.02585297846636        5.17612251060158
C            6.21587026980694        2.06562375432844        5.11752643087962
C            6.86511819842306        2.26308948685779        3.86711184147306
C            6.98491382798097        1.90640595006288        6.30478555141212
C            8.40589389998914        1.94302823221632        6.24483235849991
C            6.33486983127450        1.70737231151787        7.55452588877092
C            3.50932896046363        3.77750232704907        1.00620691502294
C            2.76323909367881        3.92757650439205       -0.14677321960579
C            2.38891209524173        5.33787754219609       -0.62943636760081
C            1.56698725326614        6.04791059475402        0.46268730036008
C            3.67523631480117        6.13612800062590       -0.91216339549124
C            1.54781446592596        5.29747914457842       -1.92048360978599
C            2.37898121342409        2.77899273359018       -0.83019339714729
H            0.37122364029239       -0.62626278156123       -1.80220397779451
H            0.32144038547525        1.13231386043857       -1.72977325476373
H            0.31095965361343        0.19138302372589       -0.24042715003900
H            2.43844427394516       -1.89444394278857       -1.16544279288440
H            2.37099478308033       -1.16614849351240        0.43369167617621
H            3.85162046933600       -1.06223169911514       -0.52994332557601
H            2.53709097504874       -0.49407062475515       -3.22409161900698
H            3.91149375628135        0.43041312560305       -2.61832157103846
H            2.45102455260765        1.26203368189921       -3.14660215758643
H            3.74213455765758        0.42356087923609        1.14370212906811
H            6.17127237131900        2.73055911820890        0.55851098922101
H            8.61079142557377        2.80105941441295        0.44410256672615
H            9.94861422275915        2.53377747005142        2.45781652362031
H           10.98735991064777        2.27554162696506        4.05334885246344
H           12.28206048193292        1.95736206165798        6.08720156241219
H           11.16530016763553        1.62115103879467        8.22588246770185
H            8.57348982201639       -0.54510325823534       10.33671568203494
H            7.67529326039823       -1.48353129349941       12.18188671880048
H            7.99948131791610       -0.57618386992818       13.65663843863282
H            8.18803976763964       -2.32988734490458       13.63752637373491
H            9.61249082511921       -2.51495078168151       10.86210919152933
H           10.14299510597453       -3.38225167912401       12.29966446871580
H           11.26709532977970       -2.33086836179739       11.43813556427901
H           10.39285942399607       -0.43452190046048       14.57438598419094
H           11.72606685766392       -1.16570153118669       13.66877699364292
H           10.53602597795727       -2.18421210281865       14.46757225207097
H           11.39299759146243        0.95268906034428       13.13791901691389
H           11.47404188258507        3.00804260682383       14.13098784215075
H           10.45481400484616        4.22232057100224       13.36278921700286
H           12.12513628368989        4.60583984390963       13.77967475250758
H           13.38629818484073        1.92432189936795       12.81742273361234
H           14.05460612311376        3.50767989040997       12.43864600621819
H           13.66969574210756        2.37914975881841       11.13907012557894
H           10.97747753601003        5.01768138314723       10.98733324000849
H           12.28289871452114        4.25487772704762       10.06772141140730
H           12.65475067968957        5.30428670578214       11.42959281433690
H           10.26674524976698        3.30573110821230        9.79061381952930
H            7.01095188214949        1.29737248090729       10.87360160967511
H            4.57844507109812        1.23393707447392       10.98089255030541
H            3.24539900489088        1.47063892110459        8.96062719838815
H            2.20825834741383        1.66008193709371        7.35395748987659
H            0.91873906918093        1.92436363929062        5.30868185280586
H            2.04622822053680        2.25290446945267        3.16617044872147
H            3.82567674551201        4.64377561596848        1.55840179717611
H            2.13906445828835        6.15401026008968        1.38352255676106
H            0.66375187924878        5.48321557237107        0.69277597259978
H            1.26829702604384        7.04499186344264        0.13962439823275
H            4.28434411609463        6.23697228228407       -0.01471907421918
H            3.44136899051744        7.13843239285881       -1.27054106182333
H            4.27795773159605        5.63828207430869       -1.67147431127501
H            0.61602850292211        4.75412484580541       -1.76497832215050
H            2.09666769949290        4.82044338588312       -2.73215942077928
H            1.29047305503101        6.30544043323421       -2.24563773432936
H            1.79876049477508        2.87110176680672       -1.72877139172739
