48
 energy: -10.007582199614 gnorm: 0.000987469928 xtb: 6.5.0 (97a52f5)
F            1.43585511206471       -0.52106398388418        0.78734588181038
B            2.80390240306999       -0.35331984029783        0.66410749454531
F            3.24504319698617       -0.46606639754238       -0.64228535567300
N            3.18909440812489        1.01967408632638        1.20052610608845
C            2.79602061186085        2.22775903078863        0.68361775678591
C            1.90536820008852        2.47744746678094       -0.41868870128078
C            1.77914176547555        3.68023140727479       -1.06614414232203
C            0.85197030972871        3.66492897433850       -2.13492089775736
C            0.25290209354583        2.46408063167070       -2.31171513723207
S            0.81027229461379        1.32542084368844       -1.14489318778624
C            3.46788877973356        3.20352190737159        1.43628439467820
C            4.24920271750572        2.57745856862692        2.40003364850209
C            5.09139628051802        3.24499434493437        3.35050422088925
C            5.92075017760968        2.64083505675323        4.25706200078739
C            6.63870075973983        3.54637498883692        5.07166949589435
C            6.36767321467308        4.84607070155672        4.79778910482332
S            5.21541257795114        4.97717577798316        3.52136740554647
C            4.06537911432751        1.15388570007811        2.24435801603865
N            4.62693046899939        0.19597827336098        2.98424967953305
C            4.28823719994756       -1.03208469153704        2.58719401288904
C            4.68871606151791       -2.27532376828571        3.20330228320706
C            5.50874514420763       -2.44101240129417        4.36875098873067
C            6.03135301943693       -1.43468346944800        5.13590479640327
C            6.80272213030309       -1.88787078495792        6.23050422485022
C            6.87745950702237       -3.23892486747200        6.31235694259569
S            5.99083004681949       -3.98156768194216        5.03274556403631
C            4.11875941554886       -3.30536901688807        2.46440344557692
C            3.37936946386516       -2.75636979067212        1.40505521337686
C            2.62456213734073       -3.49680839156549        0.42864419109985
C            2.29252309282462       -4.82320643795538        0.53789309875225
C            1.53016294935150       -5.31739309616262       -0.54656783465629
C            1.27737088829744       -4.38667249669385       -1.49631753577163
S            1.99246642878335       -2.87557279945709       -1.07749167823526
N            3.50706615208542       -1.39652597926566        1.52370675599630
H            2.35332213604970        4.55394672973179       -0.79966312185968
H            0.64926156736052        4.52817926769861       -2.75241684536647
H           -0.47668159762216        2.23545384606399       -3.06533713990984
H            3.39276153707002        4.26739018314527        1.29888637900255
H            6.01523840158191        1.57144959624780        4.32147298569246
H            7.33462540946785        3.23052013788201        5.83536977985483
H            6.80213207165130        5.69190642162408        5.29637862099835
H            5.85114737685238       -0.39737849058631        4.91656400988832
H            7.28443608808504       -1.22095260781491        6.93080348348041
H            7.41089021085143       -3.78895865335194        7.06449648438898
H            4.23525149597670       -4.35345159814081        2.67491560676677
H            2.57182361994786       -5.43009213355907        1.38510740518403
H            1.17935691648362       -6.33777591509156       -0.60403451512707
H            0.71423664227329       -4.55130864890017       -2.39538538571043
