21
 energy: -3.684042870668 gnorm: 0.000509075475 xtb: 6.5.0 (97a52f5)
F            1.22415805891583       -0.03254338481833        0.17211041055757
B            2.60390932636486        0.02013430962266        0.13929215373815
F            3.08420396599285       -0.02940551582455       -1.15473323765009
N            3.06861573939747        1.32372474535792        0.79426485044514
C            2.75484061470848        2.55306338282183        0.35594510654984
Cl           1.77949527852210        2.93908153120085       -1.01485689545936
C            3.38518438951213        3.46421106374660        1.24495969222201
Cl           3.31151793472678        5.19042093753385        1.14556738990126
C            4.07129888681105        2.74531895788611        2.20805744285338
Br           5.06538586969357        3.50889399148963        3.60843470501192
C            3.87226091994639        1.36967967250420        1.92453437869371
C            4.33903341636070        0.21824594259879        2.57753450244999
Cl           5.31898290258529        0.32995845456810        3.95167651934903
C            3.96717385567830       -1.02902825303871        2.05172511129767
C            4.27357675250550       -2.34688494956406        2.47794878597873
Br           5.31904638394707       -2.87647806175604        3.94744152219459
C            3.65121597775666       -3.21547257423538        1.59848111318594
Cl           3.71501059904554       -4.94291750905820        1.68155529901358
C            2.95451225404579       -2.45595268666780        0.62107785290855
Cl           2.02015680802848       -3.06121208696150       -0.69805923363565
N            3.16731006545516       -1.16633796740597        0.92609253039404
