32
 energy: -6.130063587758 gnorm: 0.000816796521 xtb: 6.5.0 (97a52f5)
F            1.42197965414414        0.01511936654295       -0.69655617241771
B            2.69821692810806       -0.16297134726997       -0.19731683343720
F            3.63311939890228       -0.27809438546752       -1.20801651275464
N            3.06123434059137        1.02914486492434        0.68731352572951
C            3.09680210083706        2.30583634789964        0.27452483630520
Cl           2.69744833444755        2.89523466049696       -1.29723967158377
C            3.54600493137158        3.07064343697923        1.38554142897950
Cl           3.78782038019744        4.78319522517402        1.40504958980272
C            3.77350402626169        2.21598390127314        2.44962671321008
Br           4.38950632106087        2.74052959970176        4.14622182440375
C            3.45777017686671        0.90772920348473        2.00989321365910
C            3.56073066765815       -0.32456984671726        2.70541216443654
O            4.08431046487317       -0.34684784198289        3.98785669075872
C            5.11617278557569       -1.24851588346349        4.30568535349680
C            5.37794917406855       -1.52504373480209        5.64619947321667
C            6.38824323693842       -2.38777639059871        5.99953402385476
C            7.16245352638652       -2.98422770554796        5.02431234416321
C            6.92473880686594       -2.71006070972321        3.69218730922359
C            5.91497429573332       -1.84897700075093        3.33371843420004
C            3.11140722932258       -1.46956018673070        1.99299246988935
C            2.90029915160792       -2.80865583620813        2.41728567116589
Br           3.05070193887547       -3.58444449830343        4.12512680383286
C            2.44756508938265       -3.51891136030871        1.31942618916108
Cl           2.04331569579452       -5.20057037243762        1.31107537194673
C            2.34022560021543       -2.63375328138051        0.21414823272231
Cl           1.79652153587170       -3.02307840672365       -1.37626998196439
N            2.72956630965881       -1.42963845951765        0.65932394979084
H            4.76781038887250       -1.05034090694135        6.39490719698401
H            6.57660370693328       -2.59824465952478        7.04011053637604
H            7.95462846088825       -3.66025950390645        5.30287128410877
H            7.53388222458230       -3.17095418151970        2.93116953670512
H            5.73522311710614       -1.62356010664951        2.29760500403470
