46
 energy: -9.234865633752 gnorm: 0.000610444345 xtb: 6.5.0 (97a52f5)
F            1.46924779068481        0.73487232078846        0.07808197618379
B            2.74378204643406        1.01923425129095       -0.38015679717992
F            3.43019721252752        1.84060552823313        0.49954490793182
N            3.52605802102522       -0.28131746576053       -0.58890877840640
C            3.77287946994115       -1.19549194875015        0.37340270875689
Cl           3.22078340868050       -1.14269671209285        2.00527611853297
C            4.59069128061355       -2.18848787107691       -0.20490926942343
C            4.82241504459000       -1.84008699950249       -1.51375003754701
C            4.13388918868930       -0.62239929621495       -1.77927641634954
C            4.09233185696089        0.17171332262205       -2.95284051504305
C            4.82375410224099       -0.18499105170384       -4.17040230058160
C            5.69596912022763        0.73556112398135       -4.79948337498317
Cl           6.02383337270070        2.24819176496871       -4.06178754242605
C            6.37942117848834        0.39259869784444       -5.95458388913420
C            6.23770404412949       -0.86397004398620       -6.50643575849443
C            5.40334509162906       -1.78780305333985       -5.91123195498280
C            4.69581325308113       -1.46271346100643       -4.76528772073270
Cl           3.56219543150506       -2.58835658193079       -4.14494752718344
C            3.31769372548736        1.35611530762695       -2.85668555414446
C            3.03514750853787        2.36821639766399       -3.82314777589063
C            2.24705998922027        3.31812280684642       -3.23381756201203
C            1.99023719433930        2.91494946569942       -1.89129114883882
N            1.34239203469321        3.58829614497816       -0.89200950569036
C            1.23205659266391        5.04509245383087       -0.85295348059886
C            2.54440702812377        5.72203360241826       -0.59954608401352
C            3.66013759226443        4.99821069003513       -0.21064213772195
C            4.86482994407742        5.62640590227597        0.02192215661994
C            4.96947253702993        6.99238780146981       -0.13012178851116
C            3.86670481598769        7.72647274322124       -0.51260057344153
C            2.66233526677777        7.09518979118700       -0.74444994625026
N            2.65070609059903        1.73522154098864       -1.72706142099430
H            4.97097058009463       -3.05770095952574        0.30559014913760
H            5.40987993070747       -2.39361003216338       -2.22664311203971
H            7.03723805007160        1.11818817538928       -6.40260889314316
H            6.77921667975785       -1.12415782204188       -7.40092228239293
H            5.27770113481570       -2.76892020262198       -6.33729223641383
H            3.40903517287704        2.38773372234277       -4.83291252621122
H            1.88274323964027        4.21846295742007       -3.69805669390658
H            1.37281583632123        3.16867870889220        0.03338479575677
H            0.50612598957845        5.33925896521182       -0.08738789359992
H            0.82107832824346        5.38028325445754       -1.80978400543230
H            3.57975725021516        3.93075844854401       -0.09760593968299
H            5.72466236041546        5.04844236934688        0.31917147449264
H            5.91090991427682        7.48568655335553        0.04847467664420
H            3.94603471792644        8.79468881737946       -0.63141944855230
H            1.80052958109554        7.66783987139213       -1.04195707211580
