61
 energy: -12.319628624400 gnorm: 0.000727078900 xtb: 6.5.0 (97a52f5)
F            1.13691875497002       -0.07282219380593       -0.44583424342250
B            2.44747470691368        0.30900883440024       -0.68035788646911
F            2.99132854799707        0.94540338411636        0.42556664528652
N            3.28958722546422       -0.92280044690687       -1.02638365918678
C            3.39348920119647       -2.01380975562942       -0.22469860632246
N            2.69017373683108       -2.21341110816435        0.93710709867314
C            2.64328451759251       -3.46657869453629        1.67739022948472
C            1.61823066173699       -3.45055078055957        2.76595329622812
C            1.90982520963004       -2.88323772013982        3.99562692244448
C            0.95394908270450       -2.83037484978072        4.98901662039513
C           -0.30768759118811       -3.33801762135397        4.76022870937099
C           -0.61314944294832       -3.89406415333285        3.53583916249549
C            0.34339509590754       -3.94611699277331        2.54315707804596
C            4.34138741312212       -2.86911949255711       -0.84861389430865
C            4.77233433487360       -2.26441753003000       -2.00002481618906
C            4.09102828256202       -1.02060462434232       -2.13451063261987
C            4.19355523265861       -0.01494994588248       -3.13086300705430
C            5.11241899725565       -0.12327734919621       -4.26573166310372
C            5.13306573623350       -1.26919185189224       -5.09667234252585
Cl           3.96280716183077       -2.50639825544409       -4.88564867653971
C            6.02044161664902       -1.36231957242140       -6.15612133728789
C            6.89064025795129       -0.32857751753949       -6.43625761419022
C            6.88822200939229        0.80598319125039       -5.65078607598176
C            6.02551663212570        0.91453503363562       -4.57264152667804
Cl           6.17334799864733        2.26648908342584       -3.52473826786092
C            3.35603175580682        1.11425611819479       -2.93976852983892
C            3.17059786116304        2.27829433325348       -3.73978855346883
C            2.25952702935665        3.08850443650674       -3.11499373076826
C            1.83310919323228        2.44284767480842       -1.92145875407543
N            1.03425857005099        2.93236223995297       -0.91120966232894
C            0.93855031070142        4.36212696521486       -0.62032132981364
C            2.23556381188997        4.95939965037977       -0.16521242341379
C            3.30206923477699        4.15795578071996        0.20920805317541
C            4.49427905815105        4.71311004664745        0.62285086307218
C            4.63424901181714        6.08371089179968        0.67190666692134
C            3.57972685541278        6.89456736445668        0.30816062089415
C            2.38835364556349        6.33572659055292       -0.10630164874640
N            2.51105289234814        1.26705591238936       -1.87203355570208
H            1.93840129905638       -1.57115463308463        1.16901418835281
H            3.63509948852816       -3.66139236615249        2.09677304369794
H            2.43677518747041       -4.28085129926425        0.97584388616994
H            2.89246671598278       -2.47851774610157        4.16727158375386
H            1.19267566265523       -2.38982563113536        5.94313877157875
H           -1.05509429545380       -3.29651723378504        5.53547372909593
H           -1.60018915882377       -4.28622421095900        3.35300004775404
H            0.10405976308715       -4.36978185642132        1.58289460900329
H            4.66455583688024       -3.82388341590973       -0.47032642309392
H            5.48961016712099       -2.66078088185522       -2.69849318295467
H            6.00530476372628       -2.24805367202210       -6.76844132985036
H            7.57153089155864       -0.40725447081854       -7.26762347196391
H            7.57102980891860        1.61421464942887       -5.85128649767746
H            3.68635420375198        2.48981139986572       -4.66109436605493
H            1.92788145853758        4.05442091826464       -3.45556324396902
H            0.97644131316436        2.35931738620084       -0.07428230100934
H            0.16450551071039        4.53526825390699        0.13493311501788
H            0.59770131035224        4.86962561415681       -1.52772937206069
H            3.19664573712015        3.08807539254665        0.16045031338511
H            5.31653172467535        4.07500868117573        0.90250609875920
H            5.56573822006163        6.52024840274993        0.99303075073456
H            3.68656573201541        7.96628875718739        0.34653249381952
H            1.56419404851339        6.96736088658519       -0.39049197104788
