48
 energy: -10.217193437163 gnorm: 0.000265005287 xtb: 6.5.0 (97a52f5)
F            0.77555202946466       -0.86213095491810       -0.67692000319751
B            2.12442030286908       -0.61320084925923       -0.49027378119814
F            2.46550903702554       -0.64604810631216        0.85185176456505
N            2.93913174538814       -1.67568190733338       -1.23411767929328
C            2.84608565790760       -3.00095794993247       -0.97101928696677
N            1.88536955185175       -3.51233994241316       -0.13112846440184
C            1.58793244499980       -4.75110015333884        0.41513702192690
C            2.43371090113623       -5.84190089083017        0.32843506911609
C            2.09154548536026       -7.05860484541646        0.90174287905407
C            0.90492783430781       -7.20457131013521        1.56548711626403
C            0.01127517274779       -6.11971094596356        1.68760597825184
C           -1.21602530930486       -6.22491503692390        2.35831409597918
C           -2.00939613869342       -5.12499566502297        2.42549633840493
C           -1.58195865429365       -3.94032116176762        1.83620815488019
N           -0.45018209110291       -3.78124538978223        1.19870671083373
C            0.34829557807420       -4.87063506118379        1.11722903835352
C            3.83428266378699       -3.63293987768217       -1.77912545150047
C            4.47907669424955       -2.66572120050563       -2.50011118120852
C            3.90762753569389       -1.40007470888794       -2.16425104253089
C            4.20941546378594       -0.09680698223011       -2.61686777441649
C            5.22345753339092        0.15366515412770       -3.65492894419363
C            5.26174723428734       -0.61522157711815       -4.82172269068730
C            6.20273548765629       -0.37491403602735       -5.79572225068557
C            7.12932288826089        0.63501273186848       -5.63037266709072
C            7.11080550252762        1.40588379867265       -4.48513351721968
C            6.17073005608174        1.17101718811640       -3.50871293304921
C            3.46129058790086        0.94336674637930       -2.03590108939300
C            3.46556433595474        2.35146790129220       -2.29731437617707
C            2.53207541154477        2.94046698964614       -1.48737035347008
C            1.91825473906711        1.92665579195131       -0.71050830817260
Cl           0.68670395024942        2.14388151039156        0.46496765488552
N            2.49128714771682        0.75689420305871       -1.07063589622181
H            1.20867333236581       -2.79193543554902        0.11890926122422
H            3.38078376277129       -5.73295092926720       -0.16521451426067
H            2.76902589555683       -7.89312689107699        0.82470959693140
H            0.64181160653422       -8.14997471330046        2.00710219843005
H           -1.51213438627509       -7.15919183537883        2.80311298531477
H           -2.96073695837359       -5.16779845284534        2.92969545018577
H           -2.21859697347405       -3.07017711936830        1.89533849326507
H            4.01739125928068       -4.69062494833690       -1.84846162433865
H            5.28429291334440       -2.82606169903427       -3.19662403452769
H            4.52424520350376       -1.38613429845074       -4.96253265200530
H            6.21393585599379       -0.97330699823620       -6.69197361428660
H            7.86563509352469        0.82180727175202       -6.39479545287910
H            7.83648828697235        2.19193108512871       -4.35500297817472
H            6.17118767726096        1.75775716234914       -2.60660946707047
H            4.08162873778689        2.85435022298639       -3.02286303116742
H            2.28953791333204        3.98911411610838       -1.44444474808673
