52
 energy: -10.887810883814 gnorm: 0.000771334675 xtb: 6.5.0 (97a52f5)
F            0.90286465356942        0.04624842788911       -0.27435478546138
B            1.39099221528282       -1.22926834802435       -0.07217570359732
F            1.90010159831864       -1.78457323507672       -1.23045079046285
N            2.51211626433297       -1.17387742094986        0.98215240658085
C            3.72626120923080       -0.55612336186712        0.93894968870887
O            4.26566422170076        0.23752860177124       -0.07767407081294
C            3.69957251644802        1.49152941406821       -0.28893151816506
C            2.67252603999480        2.00040868442665        0.50822822678984
C            2.15629803734545        3.25181391829364        0.27606003348031
C            2.65313052046652        4.02605705876723       -0.75438809335727
C            3.66925391958553        3.53988581624466       -1.55418170759782
C            4.18878647452193        2.28838885451952       -1.32632352839267
C            4.36839802370153       -0.86839496319378        2.17191003526185
Cl           5.92012670448030       -0.29704530343064        2.66739582713023
C            3.50972584643929       -1.67550207601159        2.93023344468593
C            2.34963142790512       -1.85804335887441        2.15836269387379
C            1.27191391962057       -2.63912486513834        2.59113529068895
C            0.20647655803319       -2.73519272812085        1.66331508330344
C           -1.01587180072043       -3.43457064729898        1.74299985767105
Br          -1.64213713677582       -4.48302975754014        3.17342881192033
C           -1.68275735035011       -3.20487916325220        0.55710069666466
Cl          -3.25926030667400       -3.80454444308541        0.16648480809215
C           -0.88750920031012       -2.36372456262292       -0.28162101726313
O           -1.20209274590121       -1.90266122961425       -1.55764927400416
C           -1.62692932284724       -2.82853695024576       -2.50823094731315
C           -2.26291133531148       -2.36547471204455       -3.66278175433076
C           -2.69046026230437       -3.24312073293823       -4.62939263469581
C           -2.48922347274653       -4.60065061494243       -4.47204024486605
C           -1.85274276991021       -5.07677480054972       -3.34232110126990
C           -1.42292355674377       -4.20432978168523       -2.37227400222127
N            0.23144847543969       -2.11116713076169        0.43335827919896
O            1.30858678189466       -3.24261826726752        3.81557250023370
C            2.44709594112225       -3.06542677013516        4.61467410189954
C            2.48827326216169       -3.67748112551858        5.86924478855754
C            3.57864459259375       -3.53698601588639        6.69115536829561
C            4.67087391582850       -2.77963135879524        6.29129859189348
C            4.66704569603064       -2.16465988075294        5.06641937988918
C            3.57005393040522       -2.29396618922895        4.21577772538540
H            2.26535693939685        1.37944393828232        1.28552061491077
H            1.35559665326907        3.62625200911825        0.89300763262351
H            2.24544711196683        5.00688098259416       -0.93684850131141
H            4.05546131214797        4.14361220478013       -2.35931997868644
H            4.98134291558713        1.89838151859650       -1.94045948147132
H           -2.41241476043703       -1.30578980785212       -3.77327256728642
H           -3.18360268843336       -2.87130196574595       -5.51282910366110
H           -2.82596921858893       -5.28757181221125       -5.23116278911649
H           -1.69210677822407       -6.13587305072044       -3.22201914788294
H           -0.91549300326950       -4.57165038695515       -1.49854439726200
H            1.64045706896803       -4.26438625321483        6.17589917419647
H            3.58756606185195       -4.01859668294132        7.65541654801133
H            5.52149219683213       -2.67515709532427        6.94471364435479
H            5.50547270309166       -1.57338457951992        4.74235188620638
