81
 energy: -17.359713755276 gnorm: 0.000867194458 xtb: 6.5.0 (97a52f5)
F            1.41100081051245       -0.43492277744252        0.99428954593604
B            2.78493992597726       -0.31552553590751        0.82075312295001
F            3.18205445850036       -0.41368544221854       -0.50777249738912
N            3.23923860440625        1.08116644056268        1.31407966157076
C            4.14296496275941        1.18114172314064        2.35801337167868
C            4.37768654279041        2.57865759285813        2.56135616828576
C            5.22735967893472        3.16701841230130        3.60267963152611
C            4.81613393847881        4.29959491596096        4.31326170198755
C            5.61024523364332        4.84602839289619        5.29439392133491
C            6.83429712742958        4.27904889796102        5.59166877604689
C            7.26283585215633        3.16280453719861        4.90001183962141
C            6.47235060267982        2.61228203313365        3.91791611043017
C            3.59712361661088        3.26621962490792        1.60825229470278
C            3.50460835347871        4.72958598603587        1.47531458754317
C            2.26310266261231        5.36123017356489        1.36306860935332
C            2.17702046679506        6.72893724926783        1.24018189331699
C            3.32459328985093        7.49737734214504        1.22746136022196
C            4.56142340952885        6.89244710621225        1.33851356902302
C            4.65310583713475        5.52518933404435        1.46184052364555
C            2.91230680522529        2.29724086103746        0.80073702801049
C            2.16057175481043        2.57241943803906       -0.42421750579222
C            1.14514512264753        1.72450460301866       -0.86586947956557
C            0.44090220534798        1.98887693916396       -2.01732243235503
C            0.73872438170094        3.10803742038585       -2.76839118644389
C            1.75043308722556        3.95561002459528       -2.36337299823379
C            2.45366539284094        3.69036494180144       -1.21089227296592
C            4.66555282152130        0.10130251616782        3.04090105404500
C            4.29590631674087       -1.17680508000002        2.67318794322516
C            4.69067125624157       -2.43229205692357        3.23661784536083
C            5.63980672929103       -2.62270010650065        4.33898123489258
C            6.59163753204136       -3.64699363037401        4.30033162495551
C            7.48683029075366       -3.82007235062818        5.33020973246709
C            7.45623643843074       -2.97801500678166        6.42482578572017
C            6.52190062249633       -1.96253583167584        6.48677095753967
C            5.62399097699458       -1.78543170604705        5.45967258505673
C            4.02608526558229       -3.43607597998595        2.50104004609019
C            4.15577619621811       -4.88571861823358        2.72342124843316
C            4.37675292975704       -5.75776430298148        1.65381124174738
C            4.50018645413147       -7.11214284315180        1.86284369429062
C            4.40729696253023       -7.62749838938306        3.14106015148603
C            4.18966519397408       -6.78241909120514        4.21175287291388
C            4.06499001995664       -5.42731860600014        4.00811945638846
C            3.20369233911829       -2.80170620238732        1.51060331481427
C            2.20341580988247       -3.46077384879986        0.66979071562711
C            1.82954566904370       -2.93906105595256       -0.56890897419625
C            0.89250431717775       -3.56591103322955       -1.35673031289488
C            0.29318408728313       -4.73159178796591       -0.92399065779968
C            0.63137356674648       -5.26003318868107        0.30599582766508
C            1.57015562569612       -4.63323696685446        1.09286487573089
N            3.43225715477579       -1.46670177366597        1.63079043838496
H            3.85994221853251        4.73752200261754        4.08606863688054
H            5.27692828142016        5.71868926809677        5.83194501088191
H            7.45579782461036        4.70934965905897        6.35984204084882
H            8.22137451807087        2.72530106242057        5.12665138048895
H            6.82499216238115        1.76504000152524        3.35628248048948
H            1.37078084272299        4.75950023840952        1.37579387994634
H            1.21219094523544        7.20125119947097        1.15357150044108
H            3.25517298947208        8.56852958551335        1.13123235506403
H            5.45655633169431        7.49250117553026        1.32974880151354
H            5.61554301886481        5.05111577667770        1.54734980233871
H            0.92620818855568        0.84449289198655       -0.29446972656918
H           -0.34086562122520        1.31872072111706       -2.33581490964353
H            0.18763590332333        3.31659691144281       -3.67088032127889
H            1.99019510660422        4.82648141248600       -2.95139418392955
H            3.25073067558170        4.34659938889080       -0.91016661484031
H            5.34967803241164        0.25441077793756        3.85150503575561
H            6.61964231341467       -4.29919801552835        3.44492740257745
H            8.21357891922947       -4.61448470959782        5.28310876767780
H            8.15860389006481       -3.11497082419999        7.23073822196093
H            6.49328790247209       -1.31035192302313        7.34437945974091
H            4.87464199133707       -1.01651078856210        5.52859756679549
H            4.45156805096623       -5.35250230266403        0.65956163299622
H            4.66942026847539       -7.77194282128673        1.02753254421703
H            4.50499850444206       -8.68861536607900        3.30271340201858
H            4.11812844936331       -7.18457660988183        5.20912006157583
H            3.89370877494163       -4.76667521295325        4.84036051501529
H            2.27847554593761       -2.02263108947130       -0.89783671487985
H            0.62363472739325       -3.14413693588064       -2.31182640239967
H           -0.44137868657396       -5.22291923215742       -1.54090843447400
H            0.15898312428252       -6.16545273978063        0.65089758296143
H            1.81895610552371       -5.04366679552793        2.05547117945633
