74
 energy: -15.806738521630 gnorm: 0.000936512703 xtb: 6.5.0 (97a52f5)
F            1.27405446435326       -0.39520366595569        1.38012502736949
B            2.60520800383068       -0.34400052600943        0.99233349014705
F            2.76183684829887       -0.48705674386252       -0.37674054456162
N            3.18693976067499        0.99411355676817        1.43800054174036
C            4.07802006173280        1.08362901420048        2.48041470323647
C            4.29209361732778        2.47813851880185        2.69662489346106
C            5.06385529664748        3.00219668279240        3.82877909836406
C            4.58866622493495        4.05831358028874        4.61188428862358
C            5.30754981196152        4.51392538092875        5.69271745890774
C            6.50749414716255        3.91808099507395        6.02880004167030
C            6.98086708506817        2.85448168616340        5.28585370778014
C            6.26508005380118        2.39578993675617        4.20467299967331
C            3.54732027010677        3.17724406831790        1.70790789132171
C            3.48841537875998        4.59759360205054        1.47695748996307
C            4.29754959903550        5.56326172431151        2.02686452381873
C            3.93803790929989        6.88495458656269        1.67680741117911
C            2.87334404835862        6.95055349153764        0.83957806464590
S            2.33481242186994        5.37142677008155        0.41469147936759
C            2.83444877220091        2.19988116742257        0.94258960331445
C            1.87617637508725        2.41500806593428       -0.15512110229705
C            0.51053763447542        2.22518016741771        0.05184617964622
C           -0.38715445729055        2.41109304357941       -0.97296920634209
C            0.05902255549007        2.78259245126846       -2.22581783973185
C            1.40923572767146        2.96350982335817       -2.45187581828911
C            2.31071130620617        2.77871470829792       -1.42969419487263
N            4.62659205424545        0.08825158598629        3.17551310980785
C            4.26192605128472       -1.11788071619118        2.73718805267192
C            4.78223586795553       -2.35740795057320        3.21229706470221
C            5.85976951914255       -2.45120534193202        4.20046889166740
C            6.87442054026466       -3.40593100997738        4.08519578848925
C            7.89538163151988       -3.46560800581458        5.00532383987474
C            7.93768653027314       -2.56775750713278        6.05407846656486
C            6.95984575765831       -1.59967416681625        6.17182745785912
C            5.93905202468153       -1.53560727455472        5.25238425552518
C            4.14305710417921       -3.39681596915692        2.48244030146064
C            4.16165058796755       -4.80626929468378        2.80519158968325
C            4.61572970280881       -5.34573682661923        3.98623809140498
C            4.52947889861722       -6.75359650385614        4.05740598517948
C            3.99604015291116       -7.31454235257291        2.94563351480940
S            3.56926860116037       -6.10923743816098        1.79278207629816
C            3.30712937781329       -2.77093868640512        1.49869951817909
C            2.54670677575973       -3.40595913315624        0.41838885083289
C            3.14141946999979       -4.35864584961834       -0.40764912748550
C            2.43409146186302       -4.94357462660652       -1.43209010328483
C            1.11931487223706       -4.58794568880211       -1.65875356667817
C            0.51839280891786       -3.63299849368293       -0.86336187356574
C            1.22573253311410       -3.04288758269376        0.15775543456555
N            3.38752824916522       -1.43801059319550        1.72125221468386
H            3.63786432819398        4.50073037517443        4.36933369579605
H            4.93113076805269        5.33427424832893        6.28157889274425
H            7.06876993027897        4.27624482910905        6.87621145471058
H            7.90938082598104        2.37938433603615        5.55717588600353
H            6.61966390795414        1.55351633861524        3.63652065857019
H            5.13344697417859        5.33619462379210        2.66839052470676
H            4.45668009048141        7.75652826150387        2.04947050920069
H            2.43269210233431        7.85273157783736        0.45928412869421
H            0.17247293703193        1.91668982896437        1.02631676451926
H           -1.44025655344503        2.26150097072621       -0.79920954165557
H           -0.64588691071225        2.92820017299550       -3.02789673580217
H            1.75740278820926        3.24931895278035       -3.43096443064662
H            3.36488148057770        2.91415485380238       -1.60034443278370
H            6.85469574266368       -4.09001278634848        3.25449972948799
H            8.66605353571184       -4.21229529755786        4.90540689778393
H            8.73781412134676       -2.61664283310729        6.77431169100897
H            7.00032649214365       -0.88912573097374        6.98107596581960
H            5.19003819984055       -0.76707767330181        5.32637637783362
H            4.98177594926531       -4.74458396608806        4.80280154542737
H            4.85682058446352       -7.32376952930913        4.91487826872182
H            3.84146427019685       -8.36589175503418        2.79131132304996
H            4.17258436158527       -4.62105879493153       -0.24188413341185
H            2.90705745801225       -5.68134108734700       -2.05951856136904
H            0.56648125063485       -5.04829624812664       -2.46125696803020
H           -0.50305321185085       -3.34248672778127       -1.04858368381056
H            0.77340508625854       -2.27361959962022        0.75718415205969
