65
 energy: -14.212118150802 gnorm: 0.000727445061 xtb: 6.5.0 (97a52f5)
F            1.77824182477708        0.62133778478573        2.95519126995454
B            2.66574185501777        0.54826190556884        1.88847436618071
F            2.03516121332390        0.37120668328378        0.66285589236339
N            3.45040573319704        1.88033948749662        1.80030206119876
C            4.82257998517887        1.87487539226802        1.99001682600405
C            5.24750044029913        3.25127065603113        1.86903053665553
C            6.47914723870964        3.84365596729778        2.00382319116537
C            6.58994260154261        5.24491471884922        1.86660886671803
C            7.83091192896231        5.90423653269784        1.99755587402660
C            7.91745069272696        7.25969511968731        1.87468186798845
C            6.77410075336205        8.02399951019654        1.61817219504653
C            5.55649437006005        7.42484373616821        1.48494134294551
C            5.42357404212019        6.02376029196411        1.60133282891109
C            4.16963847773132        5.39026806965473        1.46427823149534
C            4.08054519646093        4.01977809347769        1.57725398880153
C            2.95156622311633        3.10630088786170        1.50099779051626
C            1.60627954701896        3.44162544640024        1.05125967440949
C            1.38764956480014        4.50101499736289        0.16362407694445
C            0.11943475182799        4.82041673615395       -0.26352957012483
C           -0.96647544037869        4.08946144086791        0.17610192462813
C           -0.77482157583312        3.02885231906733        1.03854407102563
C            0.49239935343614        2.70875909675790        1.46489477924615
C            5.58521424767501        0.74399779355497        2.18315705040779
C            4.95593296221853       -0.47992505362641        2.24099054706503
C            5.52418180878685       -1.78876341129653        2.47439124453134
C            6.82422034828388       -2.21300157898144        2.60059862323178
C            7.08641090987535       -3.58796644459273        2.78955211291125
C            8.40341936015322       -4.07731968423828        2.92334599673001
C            8.63902044890457       -5.40976923975281        3.09433944590551
C            7.57654189646591       -6.31891960508236        3.13870148863345
C            6.28965909977503       -5.88629612609901        3.01203368316641
C            6.00196844983097       -4.51498672116670        2.83576945836027
C            4.67469704261679       -4.05346921512237        2.70392447057351
C            4.43295615563178       -2.70628911003947        2.54370474302813
C            3.20235868384344       -1.95060616009600        2.37327689619175
C            1.84955172783870       -2.46360371299747        2.55002735749002
C            0.75799180266341       -1.88683165061804        1.89795816029588
C           -0.51608462096088       -2.37566249371781        2.06476966408701
C           -0.73915494236236       -3.45405611613235        2.89737408717359
C            0.31975900524426       -4.03200328101124        3.56966261750137
C            1.59512682936953       -3.54374277733216        3.40265479769400
N            3.58626273609648       -0.66752234264309        2.15619367601603
H            7.34686516238724        3.24968189993490        2.22206493153666
H            8.71222476505650        5.31975982372739        2.19783327054978
H            8.87217831015366        7.74897835998770        1.97729188412889
H            6.85957649984544        9.09422077698806        1.52570450265580
H            4.67914043419736        8.01610709301243        1.28721204084724
H            3.28987993014336        5.98466431198718        1.30814945497395
H            2.23101011682135        5.04382489872687       -0.22360258080424
H           -0.02671884926029        5.63866145224416       -0.94954103467951
H           -1.95906729953466        4.34017814080985       -0.16040659371585
H           -1.61880406562277        2.44846261359682        1.37410958055710
H            0.64175025702901        1.87445246598025        2.12149274068972
H            6.65113379308925        0.81554218058780        2.28969697550034
H            7.63324101678792       -1.50883713259762        2.54542784476843
H            9.22334962311384       -3.38106369958587        2.88664317626250
H            9.65029932054163       -5.76831822203423        3.19511732455375
H            7.78004952814294       -7.36852070494163        3.27387577981075
H            5.47477602782609       -6.58864306758470        3.04698100091557
H            3.86599486672773       -4.75893200942133        2.69617186845211
H            0.92842605785785       -1.03723748073061        1.26635857552475
H           -1.34194210296805       -1.91352790721431        1.54938285664887
H           -1.73763767550876       -3.83740943093992        3.02980420536283
H            0.14509593783387       -4.86363302427101        4.23251269153816
H            2.40509561591152       -3.96780928113063        3.96860129688949
