32
 energy: -6.831783773574 gnorm: 0.000682890253 xtb: 6.5.0 (97a52f5)
F            4.29729333210062       -2.85079394625401       -0.36790897548747
B            4.82882269835696       -1.94949732037536        0.53690893814109
F            3.92176037133360       -0.96070885789173        0.87335666167574
N            6.04956086158340       -1.30181717606990       -0.07764537253925
C            7.29108306311503       -1.44150656294965        0.47328416025682
C            8.19800117173693       -0.68785790438839       -0.39527084886320
C            9.55391644687897       -0.41793063867431       -0.43691758105840
C           10.05156304672829        0.37734815865673       -1.47633486385592
C            9.24041412250437        0.90194308128073       -2.46340216540428
C            7.85035438088110        0.64813521732383       -2.45924101846544
C            6.86140479567606        1.08506725735040       -3.37095396503258
C            5.53552226641083        0.72678741555821       -3.20003749956707
C            5.10471397298591       -0.07249513786583       -2.13872240072225
C            6.04527818155191       -0.52036700639849       -1.22707588450239
C            7.39118246347835       -0.14746811871988       -1.41042809316084
N            7.62543366564225       -2.10965760330995        1.56209203351267
C            6.59161081761523       -2.72263573854061        2.20592548193576
C            6.88486000793814       -3.43778860939662        3.37250261188905
C            5.89473185392729       -4.07795151249584        4.07595597081103
C            4.59219835010715       -4.01992436737630        3.62986938088924
C            4.29936757072227       -3.31745758878838        2.47950820638836
Cl           2.66957193018913       -3.26439422966116        1.93576324983418
N            5.28681946465907       -2.68588969167101        1.79347575876541
H           10.20258201910750       -0.81604001822008        0.32287735237434
H           11.10816888367504        0.58679246546030       -1.50492499121868
H            9.65701770586510        1.50979511956558       -3.24723905802248
H            7.15635446487668        1.70130321655059       -4.20174566509528
H            4.80604816397859        1.07643757592611       -3.91188237682721
H            4.07162738509448       -0.34489002247157       -2.01532915483685
H            7.90639281737038       -3.47460782067261        3.70847702522630
H            6.13460903692962       -4.62429244814108        4.97349560817081
H            3.79813468697892       -4.51410718733416        4.16418747479627
