35
 energy: -7.591331019516 gnorm: 0.000887542995 xtb: 6.5.0 (97a52f5)
F            6.61211991218435       -2.44282131165527        2.24481012961393
B            7.47803623313855       -1.38651833193303        2.02446034819140
F            8.77157585194230       -1.82928738938415        1.81221169909094
N            7.00858256145108       -0.57730809160799        0.83009848479433
C            6.64552910031953        0.73389262994089        0.94144859064779
C            6.25371135020558        1.15433714468034       -0.40343799908033
C            5.78547189767666        2.31478061342609       -0.99387260478430
C            5.50971667320221        2.30913873141280       -2.36621786914551
C            5.68468021781563        1.18785446759240       -3.15404569961313
C            6.15755040038886       -0.01848942440373       -2.58984595728637
C            6.39219806877091       -1.26396329774271       -3.21734675890574
C            6.85340254085164       -2.34551139225635       -2.48791612907047
C            7.11135659939076       -2.27153888239090       -1.11658225166284
C            6.89689916436265       -1.06769544043337       -0.46933126676804
C            6.42500822420938        0.02464564548088       -1.22214929501342
N            6.63998186611813        1.49174382517507        2.03769997026869
C            7.05243541606878        0.84101616725377        3.12771282419727
S            7.16770888116501        1.56470162501585        4.74122964368662
C            7.75090521544307        0.07230241422581        5.45285376652985
C            8.10144142951847       -0.21566681179745        6.76239893533598
C            8.53853113258519       -1.48248242580393        7.07687087813994
C            8.63094832851974       -2.46993301981892        6.09653238828172
C            8.28723747171615       -2.19835861946190        4.79671630938939
C            7.84229825804162       -0.91642107189602        4.46912701027299
N            7.44760210210050       -0.43854887576760        3.22146051625307
H            5.64173013554198        3.19856684793020       -0.39834858739246
H            5.14744289829233        3.21501211085960       -2.82355310674914
H            5.46187160437339        1.21887906208143       -4.20597880310244
H            6.20700800328540       -1.35762593436935       -4.27276304656968
H            7.02121541944570       -3.28145204878806       -2.99476328323836
H            7.46805982113025       -3.11919634396247       -0.55929117934705
H            8.02752868625935        0.55192552240115        7.51312161206603
H            8.81353999048212       -1.71477618502841        8.09247980902214
H            8.97623107042366       -3.45530972525226        6.36308332846232
H            8.35070347357889       -2.94387218372190        4.02379759349074
