63
 energy: -13.606957763126 gnorm: 0.000799840588 xtb: 6.5.0 (97a52f5)
F            1.40781657986109        0.47934109126071       -1.12263675868767
B            2.76310829607400        0.30558868834637       -0.86878391696667
F            3.09087467705455        0.41923477549556        0.47744750017525
N            3.17801021145918       -1.11794172329127       -1.30553399411246
C            4.10292800530425       -1.29040342046169       -2.31584024206782
C            4.27419534671226       -2.72032365616868       -2.45168198405270
C            5.04780484535497       -3.49201451495697       -3.31259847081210
C            4.97792441550804       -4.86534526117077       -3.22256845527064
C            4.14163572535330       -5.47601576017135       -2.29380523701117
C            3.37324415388721       -4.72646784579106       -1.42843219921378
C            3.44795340488840       -3.33449980928802       -1.48625231945417
C            2.77858020248556       -2.28747041926135       -0.73443788918130
C            1.97179348288007       -2.47507323305756        0.46301932733462
C            0.97166296522561       -1.56866168395543        0.82393398122045
C            0.20709723320981       -1.75578450107030        1.95045193204007
C            0.42550674352060       -2.85279622422474        2.75995465620322
C            1.42076382799344       -3.75468280088133        2.43878765689096
C            2.18487777416206       -3.56975603800550        1.31008963027553
C            4.76366085809294       -0.25576009281317       -2.98795248139015
C            5.76902549532231       -0.53648314742853       -4.04319183015815
C            7.12831259152402       -0.60902380495688       -3.73330659146488
C            8.05847847929505       -0.86776195533008       -4.71366663256121
C            7.65359853788124       -1.06105823047441       -6.01955391081465
C            6.31317599183647       -0.99398246178063       -6.34445409639888
C            5.37826502867162       -0.73374967646989       -5.36891499059865
C            4.43990506665898        1.05486295957592       -2.61795899783604
C            4.92702735031000        2.30107882066552       -3.16670830768524
C            5.88564624321161        2.58505241318786       -4.13388323529297
C            6.16429095410227        3.90161768360247       -4.43091625787328
C            5.50851628929670        4.93426944220152       -3.76887489343720
C            4.55107732635280        4.67038753388168       -2.81248143373872
C            4.23450390073686        3.34423085467976       -2.51547456846881
C            3.29883352616925        2.74727477793016       -1.57795090597340
C            2.27363331148059        3.45420325389313       -0.82420042441782
C            1.74137240323990        4.66325689419591       -1.28943595990148
C            0.78031681269935        5.33951006395003       -0.57484701190503
C            0.31442917750025        4.82881146895422        0.62092448452283
C            0.80792660750425        3.62817355351764        1.09133102687407
C            1.76764015362009        2.95146319858915        0.37737916368953
N            3.50742478995057        1.40441559457853       -1.66151526199636
H            5.68307191975818       -3.01571368165976       -4.03614121283675
H            5.57080557520145       -5.47304630164309       -3.88611097133924
H            4.09006604436767       -6.55160972903720       -2.25373233146452
H            2.69906492099671       -5.20471305675370       -0.74150021007224
H            0.81209160032152       -0.70750329762322        0.20576652035677
H           -0.56024988426705       -1.04311777654699        2.20511039197590
H           -0.17227469637710       -2.99934117837616        3.64462220378895
H            1.60326276494638       -4.60265808112347        3.07853091196932
H            2.98866114351410       -4.25069279537891        1.09515597027006
H            7.43766493631880       -0.45780545329228       -2.71357869504525
H            9.10502156064235       -0.91975759286070       -4.46169091806938
H            8.38396421635954       -1.26471169904054       -6.78539903062401
H            5.99859534694948       -1.14558741887839       -7.36397412303693
H            4.33209966785267       -0.67985104353340       -5.61595183138728
H            6.39998534921795        1.78416211579703       -4.63171527514049
H            6.90674569960485        4.13340012537560       -5.17660861406492
H            5.75674294739970        5.95619855293967       -4.00401164584917
H            4.08020478981552        5.47329274574089       -2.27517249534218
H            2.05888957304817        5.04329368312396       -2.24358746644407
H            0.38369244491814        6.26821206680171       -0.95182825271306
H           -0.43853351060358        5.36043578735247        1.17932880089386
H            0.43693662150869        3.21952790363523        2.01717638774107
H            2.13714218211144        2.01115931748255        0.73558178595517
