53
 energy: -11.429651420417 gnorm: 0.000469505089 xtb: 6.5.0 (97a52f5)
F            1.68109824052890        0.41375654517448       -1.30272223210938
B            3.00515894847997        0.23138848593299       -0.92379870663683
F            3.21225035321974        0.40457007004689        0.43908510060360
N            3.42716918211487       -1.22097973142421       -1.25438542388712
C            4.43154142402561       -1.44575291870184       -2.18054367028646
C            4.59249831014082       -2.88123578656008       -2.25045966256532
C            5.42056576750098       -3.68723020067558       -3.02282281173857
C            5.32373968686416       -5.05627319327906       -2.88735873298412
C            4.41029373096116       -5.62267284055212       -2.00404014541146
C            3.58645592497604       -4.83424729638468       -1.22871868545830
C            3.68322477000454       -3.44654563735818       -1.33141131280024
C            2.96772813007857       -2.36199304583450       -0.67687451694415
C            2.05548859801512       -2.49046889931859        0.45048761757038
C            1.04579969809238       -1.55379263304084        0.68435892448375
C            0.18006701138803       -1.68337435734255        1.74390368841907
C            0.30370098538960       -2.75040756124631        2.61124634223220
C            1.30557830657273       -3.68068599967368        2.41590703953930
C            2.17080425072390       -3.55345612865403        1.35422625000256
C            5.14486526078985       -0.45654637162380       -2.82092844090218
C            4.84014474694292        0.86025913964045       -2.55469724112438
C            5.41223259159569        2.06258809655648       -3.11852648644157
C            6.46485051970005        2.26393289809054       -4.00362000313927
C            6.81291704654587        3.55675323592800       -4.33428330570987
C            6.13384306496611        4.64017404834512       -3.78618879150731
C            5.08569894430795        4.45392475052784       -2.90963384478022
C            4.69886164896493        3.15462730984706       -2.58072950431376
C            3.66726028618915        2.63123068966547       -1.69815738519266
C            2.60367966612803        3.40059042425978       -1.06869085581144
C            2.14837374919662        4.59808653669863       -1.63348560371214
C            1.15082145834844        5.33239722847652       -1.03528380955746
C            0.57213326958211        4.89180802004122        0.13864988374219
C            0.98959507728355        3.70387080741299        0.70486165897997
C            1.98557895039762        2.96915439068973        0.10740962364276
N            3.83821789300933        1.28283243170710       -1.69695813925635
H            6.11404006196729       -3.24182829075029       -3.71379243131242
H            5.95694586877136       -5.69560630576149       -3.48008747663918
H            4.34226417756526       -6.69543798066408       -1.92853386845429
H            2.85476869034214       -5.28040548722056       -0.58015976299535
H            0.95944068401464       -0.71561772786698        0.02125843398676
H           -0.59345791771011       -0.94941049058169        1.90039008100329
H           -0.37384431456842       -2.85213958338411        3.44307494195514
H            1.41317027195075       -4.50522806457902        3.10151732310856
H            2.97691376606315       -4.25536881701641        1.23849804001317
H            5.92665680855324       -0.70719743370667       -3.51267684941353
H            6.99492530683439        1.42130509561027       -4.41073377717169
H            7.62744365662360        3.73037066614183       -5.01798907346401
H            6.43622107772718        5.64125074076527       -4.04613670810722
H            4.59780570135289        5.29684463782407       -2.45525783178683
H            2.55562840662209        4.92358985624962       -2.57371167061810
H            0.81512691874414        6.25149348100775       -1.48705909464059
H           -0.20865530357475        5.46879656416806        0.60641217322524
H            0.53203608947104        3.35145572645758        1.61480994096549
H            2.29984255622084        2.04043090594479        0.54117079340679
