31
 energy: -6.191900201989 gnorm: 0.000893728653 xtb: 6.5.0 (97a52f5)
F            0.99688638324080        0.32481319019509       -0.16629836866151
B            2.37617023936695        0.22294309849382       -0.11088271056803
F            2.83751568015708        0.21773403088188        1.19411176177224
N            2.81436531095094       -1.06978781479784       -0.80510059790452
C            3.65551776968389       -1.10972621241507       -1.92499953739030
C            3.83585741424459       -2.48425533126797       -2.18902748207656
C            3.10606089087541       -3.20371418875213       -1.25035903427750
Br           2.98195438988326       -5.08229811592477       -1.13560910860678
C            2.47085609266361       -2.30391892205480       -0.38701972278814
Br           1.36704177486817       -2.75166131316147        1.07117879836270
C            4.18311096400911        0.03192884244108       -2.55461555732729
C            5.05779536312081       -0.05953824403357       -3.73643509117438
C            4.73190704054565       -0.89267121054588       -4.80912728666352
C            5.54960521907239       -0.97563296070811       -5.91215335197167
C            6.70994442346957       -0.23076036354377       -5.97259534521643
C            7.05094357303734        0.59895620150069       -4.92369261978017
C            6.23695017192739        0.68501593039872       -3.81808738677559
C            3.82353203947564        1.26761388074058       -1.98607276050982
C            4.12654524320603        2.59087732515170       -2.37110127535202
C            3.50038919381044        3.45380504323120       -1.47920499975110
Br           3.56864730153121        5.33844438629966       -1.51634108223817
C            2.79637958653500        2.69590464109924       -0.53695459687197
Br           1.76920034525148        3.37140096869203        0.88925695182484
N            2.99939307931569        1.40380807551573       -0.86074007954659
H            4.44855661577705       -2.91196292336512       -2.96365751047356
H            3.81471868102909       -1.45475244244146       -4.77393325040699
H            5.28166444190322       -1.62095736780921       -6.73282575801210
H            7.34889099889519       -0.29667483593044       -6.83806909779855
H            7.95872081402444        1.17828623207949       -4.96957412977234
H            6.51657958682305        1.31246710247128       -2.98960540729118
H            4.71465937130596        2.89094329755960       -3.22108436275290
