51
 energy: -10.671894995197 gnorm: 0.000759136918 xtb: 6.5.0 (97a52f5)
F            1.35205990296796        0.83119109005319       -1.20995628221526
B            2.67298770101926        0.66278337183699       -0.81749872889832
F            2.86454992213189        0.92012804016502        0.53226009660216
N            3.06377692053162       -0.80477606685306       -1.08954517573075
C            3.98607295825832       -1.11419629838735       -2.10025296296983
C            4.14108470300623       -2.50807447926327       -2.07495008393955
C            3.32732244528695       -3.00430450730142       -1.06878221758529
Cl           3.23210842594171       -4.65974957559705       -0.64218298056628
C            2.62976099625040       -1.90834732496535       -0.44489295106758
C            1.70401279666833       -2.01221855301478        0.67519821703639
C            0.87694723232812       -0.95280502290059        1.04296939597450
C            0.01947653472766       -1.05292722693463        2.11367995093379
C           -0.03881776801435       -2.22176584677565        2.84510632722496
C            0.75963106540151       -3.29112503315975        2.49301566981320
C            1.61427203499316       -3.18817849174999        1.42070071382415
C            4.66634536247728       -0.17133201046894       -2.89372796143758
C            5.62004100302496       -0.58956822472912       -3.93675281033186
C            5.28010356130426       -1.58074864900178       -4.86254408694385
C            6.16844056129227       -1.97249872879310       -5.83668815800402
C            7.41765530604931       -1.38933783166103       -5.91128978372574
C            7.77649949724159       -0.41193411597828       -5.00455572790828
C            6.89182384838699       -0.01576729832488       -4.02872499890907
C            4.42315743915726        1.18495692686749       -2.60683700460899
C            4.98934429582447        2.32417731984549       -3.19781440420581
C            4.46775591041652        3.43581400687178       -2.55564279036627
Cl           4.90222779183487        5.04953605852798       -2.92760170748584
C            3.53051361975026        3.00185818885011       -1.55094307343851
C            2.78515785602955        3.87080902762004       -0.64931380762129
C            3.14517765686660        5.20955477859138       -0.49097023839711
C            2.46474604830113        6.03548747426118        0.37294478933802
C            1.39580031219106        5.54802300834457        1.09668579768013
C            1.01036990631384        4.23137713719522        0.94677864324075
C            1.69503699555623        3.40721361201985        0.08451283960552
N            3.53699019823434        1.65410555175715       -1.62507132112025
H            4.81169356371360       -3.09138893240362       -2.68016498589618
H            0.91264979829113       -0.04943997517261        0.46526030992080
H           -0.60777998600471       -0.21835161628789        2.38108565376666
H           -0.70906686769535       -2.30122237826123        3.68525119631435
H            0.71123636066907       -4.20816847277363        3.05729358921725
H            2.22309012736084       -4.02772217835744        1.13961703214975
H            4.29927753619860       -2.02149983327980       -4.81722828178815
H            5.88778596951352       -2.73446982851105       -6.54535522652977
H            8.11208889380444       -1.69754415037975       -6.67554287436289
H            8.75400089784326        0.03870149648922       -5.05906835739829
H            7.18440437988759        0.72428723631756       -3.30434671279201
H            5.69585335987183        2.34765471961146       -4.00787151839486
H            3.96616620459444        5.59693304803162       -1.06588612723211
H            2.76434867588544        7.06521919811501        0.48214514786495
H            0.86079234090332        6.19455881972296        1.77296645247851
H            0.17122102818428        3.84949718719697        1.50432594091396
H            1.38591467522589        2.38798535299874       -0.04331442201780
