47
 energy: -10.155821657389 gnorm: 0.000931423658 xtb: 6.5.0 (97a52f5)
F            4.02588775051657       -1.79660411805646        2.16767629116574
B            3.54571684736281       -1.76733979438559        3.46633688213970
F            4.56090842193051       -1.53619978197284        4.37909944454834
N            2.49417243013018       -0.65926017017461        3.59028796959606
C            1.16517493700910       -0.89298931767563        3.92585340983381
C            0.51263219916860        0.36710986649103        3.94213956550825
C            1.46460265361406        1.33807949374514        3.61528074406525
O            1.65837806168952        2.69386336637853        3.42368326675783
C            2.99263669892802        2.86423793593200        3.09865967162663
C            3.57685762973436        4.17772761803306        2.82884090407263
C            2.75816651617875        5.30085649188577        2.86466270776810
C            3.27062542953556        6.55516507867153        2.62096862486716
C            4.61253206755741        6.70884388265115        2.33768776808649
C            5.43935719241026        5.60423059161826        2.29888873242313
C            4.92915284563975        4.34848699557368        2.54182020400244
C            3.66596129613059        1.64684579034076        3.07023614093007
C            2.71571665767290        0.67700559793696        3.39291245397490
C            0.66238341751212       -2.15852141833766        4.19120621033690
C            1.53128738927543       -3.23782983762820        4.12073459453180
C            1.29403991411140       -4.61650380422446        4.35952517971816
C            2.50329796418639       -5.29130089748727        4.16366225724222
O            3.10439141927290       -6.53628712428351        4.19033710612269
C            4.43166786565467       -6.34446763792831        3.84823549490351
C            5.39389458196678       -7.44327168948769        3.77085079926760
C            6.71519951504031       -7.25013716484691        3.37442233252303
C            7.59048543248635       -8.31158635730993        3.31726731943739
C            7.16524825149531       -9.58090418727467        3.65412727307732
C            5.85884376286246       -9.78762692953303        4.04813541893291
C            4.98137427127073       -8.72827989499815        4.10508343371817
C            4.70215278385375       -5.00169392699284        3.60210942589281
C            3.49667766031136       -4.32675207773359        3.79843056235700
N            2.87475710542482       -3.10740618199324        3.78622051711276
H           -0.52191953082087        0.54919044834228        4.16759797908336
H            1.71314383202476        5.16928838855798        3.08812162502018
H            2.62432352949132        7.41695854268688        2.65242759829886
H            5.01455987221423        7.69051601000614        2.14772167850842
H            6.48743296733539        5.72534795544260        2.07894820533309
H            5.57810828051233        3.49129747792672        2.51293406608761
H            4.70144177907658        1.46655562476995        2.84948515105770
H           -0.36945062745440       -2.29783850200748        4.45317766402426
H            0.36079097842272       -5.06524018663441        4.64589170776004
H            7.05104972635673       -6.26342705393634        3.10887134334180
H            8.61054549962115       -8.15121566953578        3.00858655181340
H            7.85262679582274      -10.40970520497964        3.60933197107329
H            5.52604958332747      -10.77805670628665        4.31231071866226
H            3.96009793418380       -8.87779406419646        4.41167395046015
H            5.63713840991449       -4.55372745708118        3.32183708302498
