49
 energy: -10.679993763250 gnorm: 0.000953384573 xtb: 6.5.0 (97a52f5)
F            5.30083700105946        2.23818116197268        1.82558981463936
B            4.08446464747823        2.26311664235950        2.48829246498653
F            4.25641607774019        2.10270493861087        3.85338914159603
N            3.18938783536674        1.14770501866453        1.94855928098751
C            1.98842411015655        1.34905197771852        1.26151147922256
C            1.53584253836638        0.07590534126202        0.85985072056204
C            2.46224209738457       -0.87377698472778        1.32124357075331
O            2.73901290743267       -2.22941839940909        1.34446113320765
C            3.93336524170483       -2.38631162230044        2.03883129217159
C            4.65711310541492       -3.54105042510076        2.35064810553856
C            5.82854675739856       -3.42909026751325        3.05781944947668
C            6.31311752152108       -2.18537354691956        3.47327766658558
C            5.62622408032931       -1.03217948099729        3.18520283150035
C            4.43807212574305       -1.13364673536456        2.47006615606302
C            3.49681733780581       -0.16718362982247        2.00983632477915
C            1.43619776780195        2.62767305659093        1.02318914755261
C            0.17096498930882        2.80730120593156        0.29495951454830
C           -0.94508049036567        2.01302696501953        0.58009884374196
C           -2.12998654337917        2.18472605236168       -0.10769831576788
C           -2.22275608741930        3.14768358710906       -1.08959034183745
I           -4.00407289616656        3.40010087638590       -2.12209924185332
C           -1.13838160717562        3.94372643404776       -1.39008386762324
C            0.04908982021275        3.77772414352458       -0.70558899334153
C            2.16926401843261        3.72524280433940        1.52805835468273
C            1.86342019926034        5.10120817248562        1.51511940927684
C            2.89933823427290        5.77703548180254        2.18053359598960
O            3.32924207379267        7.03328136860476        2.56956218270224
C            4.53147593010224        6.85668567328224        3.24551786612034
C            5.37940278164333        7.79138680970049        3.84698358617791
C            6.52607237152586        7.35800087266450        4.46517032576263
C            6.86339971734046        6.00207878266953        4.50720413847985
C            6.05276156823497        5.05812369385234        3.92700459872578
C            4.88966900414706        5.48576083344353        3.29612121974611
C            3.84677690946512        4.79686651430635        2.61052653148514
N            3.38180036980786        3.59181788065678        2.21161848289293
H            0.66269256069852       -0.14022794270264        0.27251286988125
H            4.28356314537700       -4.49685846552274        2.02982436102255
H            6.38722358446880       -4.31860351324218        3.29849840971036
H            7.23621377570689       -2.13191466489706        4.02643648800164
H            5.97873644751258       -0.06416430563302        3.49563945567993
H           -0.87951644441609        1.28067464754884        1.36555265063310
H           -2.99084398307886        1.57346180426537        0.11711184272672
H           -1.22775165533440        4.68972393342018       -2.16518348100796
H            0.90510948549605        4.37798806514961       -0.95963042597145
H            0.98768931785012        5.56185552327672        1.09685978239464
H            5.11791034642771        8.83380720009619        3.81528736166383
H            7.18017725601532        8.07788916409312        4.92908855858489
H            7.76960885125800        5.69477148507981        5.00252608944749
H            6.29005579628737        4.00895187131906        3.95004956706726
