38
 energy: -7.612714854270 gnorm: 0.000817789268 xtb: 6.5.0 (97a52f5)
F            1.47501897405818        0.58177311369597       -0.77928625498044
B            2.84082770360428        0.41151168237088       -0.65259582874412
F            3.29852506575627        0.73828616037173        0.60963771128625
N            3.17424341881379       -1.05963593991917       -0.92099742323113
C            4.03030928199009       -1.42870025064686       -1.93981327773177
C            4.15681933903047       -2.84597526708787       -1.84352026699282
C            3.39792261871203       -3.26652494870640       -0.79240542294063
C            2.75449882998290       -2.13426175529390       -0.20037253051486
C            1.87347905279578       -2.14491476513469        0.92580068640122
C            1.69273788125117       -3.20778307793937        1.78212627599404
C            0.78948484778953       -2.95092477727777        2.83310981091995
C            0.25541280875757       -1.70432225374533        2.79786421532407
S            0.84597917925914       -0.82824655205396        1.44143014564120
C            4.60916533572060       -0.54617959533765       -2.84115932203579
C            5.47959567586299       -1.07703437252477       -3.97158470357210
F            6.32082165105743       -1.99852722126726       -3.47270203676014
F            4.67816655789775       -1.63820661987523       -4.89190065820857
F            6.17812781692737       -0.07051686097848       -4.52044717859112
C            4.31999756582023        0.80431246872156       -2.68904921635050
C            4.71568947375725        1.92905457806327       -3.47307839235362
C            4.16917320526280        3.04692896236034       -2.91808831057964
C            3.42070556249738        2.67167661711100       -1.75880148550319
C            2.69823043354830        3.54820383407116       -0.89020367983330
C            2.39403252258013        4.86240267759777       -1.16463682508141
C            1.64698794612056        5.50160857921406       -0.15477679822440
C            1.37693849970283        4.70384579115497        0.90870122242793
S            2.06540025574606        3.14422353872736        0.68848580942691
N            3.53602836007513        1.31885793365386       -1.67385785813660
H            4.76760396758135       -3.45737788066006       -2.48763910444382
H            3.28957401365541       -4.28808223194572       -0.46827515319073
H            2.21751947720565       -4.14471228238804        1.67558139371350
H            0.54877966148381       -3.67878881735656        3.59558816336568
H           -0.45045358578447       -1.30808577706690        3.50335158607898
H            5.34129116110366        1.88407177111856       -4.34924620859956
H            4.29467655950395        4.05263440176429       -3.28317550899120
H            2.67515726294735        5.35126549417350       -2.08482924767822
H            1.31878698736186        6.52928881068932       -0.22451203575068
H            0.82191463056194        4.99413483234544        1.78074770844034
