55
 energy: -11.882105280495 gnorm: 0.000436403493 xtb: 6.5.0 (97a52f5)
F            1.65174589322794        0.69714486465930       -1.27090822120412
B            3.00134128066909        0.44350737415597       -1.08634629522397
F            3.43948678267107        0.71561182847182        0.20147398946006
N            3.25701004666757       -1.04374595209142       -1.39011571882239
C            4.12088389806480       -1.44227315238577       -2.38403597036578
C            4.12634540734302       -2.86979175349707       -2.34478904355955
C            3.27661812065785       -3.27012089029804       -1.35751889466102
C            2.71434179900630       -2.11335010307796       -0.73651701569481
C            1.79816399064241       -2.11383576972438        0.35035804359238
N            1.30844801857859       -1.02920656756179        0.92073676233172
C            0.45093012598502       -1.32803729935809        1.95534611745828
C           -0.22009044003239       -0.39071977375224        2.75339294833347
C           -1.04398867021979       -0.82813770771146        3.76034296160227
C           -1.22054553385878       -2.18952353861266        3.99621612098230
C           -0.57115627872728       -3.12433115288082        3.22242405949748
C            0.26301840794711       -2.69536273971294        2.20369847536886
S            1.21098006779065       -3.60789751605841        1.06815511873577
C            4.86048399116833       -0.56886783786153       -3.19994635495911
C            5.79494199592461       -1.06840113952205       -4.22688336216828
C            5.39237612944896       -2.02880028364758       -5.15824167130690
C            6.26476249812191       -2.49269966367790       -6.11554521468490
C            7.55811021238610       -2.01251831912023       -6.16594673535063
C            7.97685550588759       -1.06431900198919       -5.25410458955401
C            7.10785061819001       -0.59577551549437       -4.29598597855316
C            4.66580786609602        0.80579198160776       -2.98027072453437
C            5.26148003327820        1.92264512702770       -3.64111408023955
C            4.75515976672996        3.06099215696221       -3.08948112050162
C            3.81062780653307        2.70434805667528       -2.08025166723149
C            3.08177167781218        3.63480982485150       -1.28527439308795
N            3.37098501695497        4.92524743543610       -1.27271128303471
C            2.56872650353268        5.62752284327089       -0.40171687779802
C            2.65144476539885        7.00404261635573       -0.14652602629131
C            1.79445961672434        7.57610453618357        0.76057908553331
C            0.84636068321198        6.80635712764800        1.43016274174986
C            0.75008830886303        5.45399497502381        1.19389516638499
C            1.60809338749157        4.86625863478317        0.27944567149477
S            1.72596417664909        3.21547301397523       -0.24461064905354
N            3.79845875633250        1.33781443240663       -2.05398595513225
H            4.71747160615766       -3.51371538008794       -2.97313628935340
H            3.06568440785436       -4.28792965102761       -1.07592241319330
H           -0.07570049536849        0.65763571215036        2.56288936067302
H           -1.56015552163967       -0.11049398783243        4.37652975181232
H           -1.87104259980256       -2.51295005631565        4.79173456211273
H           -0.69993479570211       -4.17879730706237        3.39503012275541
H            4.37855777463746       -2.38892026002181       -5.13040907657144
H            5.93718434865187       -3.23065423490940       -6.82940586088951
H            8.24024865620006       -2.37786379003343       -6.91590432462683
H            8.98772013837221       -0.69253196937214       -5.29124943127160
H            7.43994291012169        0.12857014273946       -3.57257462657639
H            5.97996828730644        1.87033873149241       -4.44103715772120
H            5.00697417561141        4.06974967066984       -3.36997851898273
H            3.38881134948186        7.59026688906563       -0.66515488685431
H            1.85508998784884        8.63390416014777        0.95715795198340
H            0.18228499765661        7.27428541305684        2.13778145338180
H            0.02007253947484        4.84900476582114        1.70317996380657
