92
 energy: -17.480854877830 gnorm: 0.000831975634 xtb: 6.5.0 (97a52f5)
C            2.82035638970655        1.72158977187153       -0.09288473954937
C            3.88846365384990        0.65542213988890        0.22204069507428
C            4.38021749535554        0.05762636453290       -1.11026324753200
C            5.06148735920299        1.34139596294146        0.94692073341925
C            3.33305827973378       -0.46897567006920        1.11075118137432
C            2.00813920900597       -0.45194549443799        1.59830733470832
C            1.48187587047696       -1.44507419664038        2.39541632976166
C            0.05533662941506       -1.43926037592164        2.94681324454954
C            0.12056915367974       -1.40818871022834        4.48379288813666
C           -0.74736446372303       -0.22014193989546        2.45525391585455
C           -0.66191420189717       -2.72258646975247        2.49170211135681
C            2.32383721988342       -2.52251734592344        2.73175376699069
O            2.06450746599835       -3.64302556852070        3.49921601993827
C            3.22964783299414       -4.38393411081298        3.51044047401955
C            4.23396221502396       -3.74623193656482        2.76353352939670
C            3.65298066098550       -2.55108833629903        2.25829762141841
C            4.14946749844771       -1.52275357137889        1.45012086916948
C            5.53504828852521       -4.30810295054799        2.62033805734961
C            5.81535301557607       -5.48779967995022        3.21685373861567
N            4.83862262903777       -6.14681470585176        3.96117511762696
C            4.95425328263810       -7.39503267022729        4.62860623889377
O            5.94614965001828       -8.11105931777718        4.67979824522112
C            3.64969158072572       -7.62264411266769        5.21843155585631
C            2.89954856335010       -8.54223575845832        5.97424779770444
C            3.21281753157807       -9.80880359087677        6.53665225990551
O            4.37907824610885      -10.54767878106720        6.54574509329686
C            4.09338668698498      -11.71525872110645        7.22875401825313
C            4.92425181882421      -12.81365041793535        7.52076510913422
C            6.37988496569647      -12.76740135809372        7.05470154552945
C            7.07044626644718      -11.55714223960378        7.70774292230411
C            7.14730847358534      -14.04655361135200        7.43712199264074
C            6.40832707443428      -12.60749325989299        5.52427241766019
C            4.36596847626755      -13.86207837409435        8.21823526882899
C            3.02162653192101      -13.88260336155535        8.64629577981932
C            2.49905398573311      -15.11284504062635        9.40524293700409
C            1.01461717102017      -14.95858471796629        9.79182710773503
C            2.63963001619913      -16.35984946161232        8.51155660419477
C            3.31864478564494      -15.30383918916446       10.69547929731696
C            2.21827449941729      -12.80155082793841        8.36271012143654
C            2.74823978928849      -11.71596555811358        7.65620255165814
C            2.18628521150806      -10.48656679233297        7.21487372552776
C            0.88087107723883       -9.93182754854366        7.34730611340031
C            0.61782555224091       -8.72197237863775        6.80561338426693
N            1.61419146448027       -8.02783589561771        6.12144256612621
C            1.50376510654622       -6.76956145650775        5.47194865387084
O            0.50890536131697       -6.05812184965039        5.41483935157040
C            2.81413258614098       -6.53091224162733        4.89902679202629
C            3.55795975084186       -5.62405432271420        4.12156069395886
H            3.23047834297398        2.49987786693308       -0.73557660932422
H            2.46419361920832        2.20243797230302        0.81734380525423
H            1.96877230983725        1.28237510891938       -0.61120985500863
H            4.75347617967673        0.83732039216875       -1.77317955064182
H            3.56966571749162       -0.46026459678068       -1.62144512422856
H            5.18654833928885       -0.65637228210386       -0.95148727758518
H            5.47053309035774        2.15246146161308        0.34566683357734
H            5.86700646835703        0.63730646316978        1.14925520956000
H            4.73440200518670        1.75808020406627        1.89876184590441
H            1.37910492274651        0.37590543399211        1.33513815195426
H            0.63558376964159       -0.51309650737519        4.83012696439563
H            0.66198100609687       -2.27435551165379        4.86241237285496
H           -0.87751840132912       -1.41656972210350        4.91965595943582
H           -0.28676348752853        0.71087320689944        2.78303234777759
H           -1.76266748736324       -0.24198698701295        2.84937001872756
H           -0.81512884748584       -0.20862436323080        1.36815978174230
H           -0.13496060413639       -3.60615665316410        2.84977455488627
H           -0.70544989485787       -2.77558281614614        1.40473716463486
H           -1.68067416575216       -2.75963594923057        2.87514137541441
H            5.16524991588967       -1.56934402103755        1.10481546717203
H            6.27451772295401       -3.78755316459754        2.03846651528048
H            6.78260848635949       -5.94982123792766        3.13366528709772
H            7.04941702751492      -11.64043378156440        8.79349250937611
H            6.56537378045681      -10.63209778431982        7.43238361975966
H            8.11019840047919      -11.48110219882488        7.39251963954257
H            7.16476992200186      -14.18458089085735        8.51741024168293
H            8.18014210298280      -13.99393350086679        7.09491058474235
H            6.69323891427215      -14.92641298863012        6.98325658834977
H            5.89681746278754      -11.69362545879357        5.22361933222769
H            5.91121049397223      -13.44649947588690        5.03877856142485
H            7.43140429089306      -12.55791800268372        5.15388701729208
H            4.97820860039985      -14.71311584572225        8.44909709502692
H            0.38922043691932      -14.84056703421787        8.90783045569910
H            0.86569242508290      -14.09605375195748       10.44015980264460
H            0.66206808381397      -15.83844199780213       10.32885710922953
H            2.08359129092264      -16.23236737921035        7.58360266064655
H            2.25511882756078      -17.24575812257206        9.01555515816279
H            3.68061279217776      -16.54855567282561        8.25458384933038
H            3.24968850506615      -14.42055423254004       11.32917316093679
H            4.37089721555271      -15.47661914039651       10.47588037332171
H            2.95363930164184      -16.15736073329213       11.26552949136248
H            1.18981684503251      -12.77024634538744        8.66772787428338
H            0.12317864429566      -10.48281548247954        7.87515948157879
H           -0.35285207896815       -8.26579479752371        6.88094036765539
