57
 energy: -10.630636670772 gnorm: 0.000701117120 xtb: 6.5.0 (97a52f5)
F            1.92018238552601        0.59043593379769       -0.50196681875287
B            3.26732185181237        0.29474975095599       -0.32475345553989
F            3.68824286198095        0.42046083015278        0.99382283537572
N            3.48935767044960       -1.17230574446261       -0.75359235274085
C            4.28744322758853       -1.46367258818574       -1.83352852255448
C            4.31219949417484       -2.88488927294810       -1.93138349578399
C            3.53541390809780       -3.39254791907299       -0.93428799117890
C            2.99645455623809       -2.31241838258108       -0.17276200810117
N            2.13969264930916       -2.45170383384397        0.90996018084267
C            1.48861368069560       -3.73202353531346        1.23141922949869
C            0.05398318370593       -3.71273534235030        0.70456561610943
O           -0.67431085899356       -2.60367375474537        1.22431361409756
C           -0.04200377175885       -1.35747922065175        0.94871820282267
C            1.38823515748064       -1.33237270163896        1.48325301730377
C            4.96927890206521       -0.51665047801061       -2.62128456440212
C            5.78759042108913       -0.92062060992305       -3.77879232809546
C            5.29427790815309       -1.82068991525854       -4.72946148584688
C            6.05703086551000       -2.19604924251556       -5.81049553149107
C            7.33015678275461       -1.68653001939333       -5.97167920218414
C            7.83864200724862       -0.79811048476461       -5.04490533823717
C            7.08015495085895       -0.41819257740388       -3.96236811250664
C            4.83257793832488        0.83240134725427       -2.24169789694073
C            5.38325996023055        1.99211779068635       -2.85945514419095
C            4.97192812953621        3.08376182650646       -2.15648827466618
C            4.13754932677733        2.65360372780991       -1.08148699690364
N            3.51717475720735        3.49639826750566       -0.17051876428419
C            2.45924560705409        3.06083473262234        0.74482901183932
C            1.10512588177450        3.53137655811417        0.21830271636266
O            1.08546035126516        4.94272382829384        0.02827800394180
C            2.12041115045013        5.38982754146322       -0.84262924145001
C            3.49634504627877        4.95887076454059       -0.33621903785435
N            4.08294471533493        1.28707826056575       -1.18297850604651
H            4.87494490948662       -3.45555147104197       -2.65014607406234
H            3.37194301687347       -4.44053623924867       -0.75272629489663
H            1.48737092078124       -3.85126287056613        2.31919720696470
H            2.06428465615554       -4.56926955202071        0.82763593058587
H           -0.49376716785871       -4.62531469135793        0.97253268512421
H            0.04273356011109       -3.63413983214736       -0.38865308125577
H           -0.65950095797732       -0.56455873436664        1.38994240594987
H           -0.04998371905487       -1.21155042650791       -0.13796098562825
H            1.38969703272491       -1.43389903697965        2.57262817521202
H            1.89502638005000       -0.39536970937359        1.25322832358529
H            4.29372248840855       -2.20047126973469       -4.61702713312481
H            5.65880438047870       -2.88692996623985       -6.53549105584530
H            7.92605437992682       -1.98190569220009       -6.81954511496377
H            8.83413521264372       -0.40422633087077       -5.16856844160878
H            7.48721213496578        0.25427281591809       -3.22759333763273
H            5.99955774839487        2.00224881241181       -3.74199905697499
H            5.22880295945739        4.10152030301967       -2.39317677813367
H            2.65548237109469        3.48948224873247        1.73207249719024
H            2.49640319160154        1.97772105739373        0.85712754245776
H            0.28686240165250        3.27590763839265        0.90372957839329
H            0.88214484063373        3.06095117533906       -0.74671602535655
H            2.03670797104911        6.48105475002139       -0.92636504197563
H            1.92320185245121        4.96972157312678       -1.83557802022847
H            3.69678994207068        5.41489764283740        0.63806265524815
H            4.29956879566863        5.28374226823189       -1.00278791747716
