20
 energy: -3.967718728547 gnorm: 0.000730526807 xtb: 6.5.0 (97a52f5)
F            1.12808155268366       -0.07290753101785       -0.09944677180552
B            2.50761812835140       -0.04624757971650       -0.06020301601426
F            2.99991243220273       -0.07589196126855        1.22909399744346
N            3.08523666822977       -1.21630490025270       -0.87720709134497
C            3.80809326238069       -0.65565002771958       -1.89742673290126
N            4.34335711079070       -1.63939112045058       -2.65475500830134
C            3.93566439093986       -2.80947046520678       -2.08094403808315
Br           4.36040802973725       -4.55230558118961       -2.68324424754266
C            3.14712738324007       -2.57896143167906       -0.96682039288336
Br           2.34515095673711       -3.85315277526021        0.16571503434483
C            3.78487285575955        0.78030858612305       -1.86152421112304
C            4.38404580324778        1.70544635537532       -2.70615844925736
C            4.19912274896478        3.03898001662848       -2.44116357635059
C            3.43063279302109        3.43853404605643       -1.35347662401543
C            2.85136126262352        2.49818150118164       -0.53736497907015
N            3.03434413616141        1.19557515353439       -0.79996701557579
H            4.97449841238473        1.37064007086142       -3.54153123565814
H            4.65182850699362        3.78119829869916       -3.07893817910506
H            3.28947567664886        4.48784925445655       -1.15071223997564
H            2.24997788890144        2.77037009084499        0.31381477721944
