44
 energy: -9.701206124974 gnorm: 0.000575427935 xtb: 6.5.0 (97a52f5)
F            1.16167417009848        0.11429511927497       -0.19599632268647
B            2.54298909435895        0.05556670102936       -0.14877251028802
F            3.01784192544826        0.09216208860302        1.14998494450928
N            3.04973313726111       -1.20655318827910       -0.86905386713185
C            3.81158304589734       -0.77809306091837       -1.92456569552916
N            4.30524205867019       -1.83011375008387       -2.61583435361451
C            3.83387801927085       -2.93696243571369       -1.96589578103541
C            4.04798705552090       -4.32532225876176       -2.25302100822553
C            4.83227443069268       -4.71687672144644       -3.34219902383874
C            5.03780882334324       -6.04207334570506       -3.61160854499161
C            4.46394645856960       -7.01026663007336       -2.79924922563480
C            3.68905661299764       -6.64995885381199       -1.72521030804533
C            3.45251003899817       -5.30476173957461       -1.41390739592901
C            2.62652407810645       -4.90158619997527       -0.27131206524875
C            2.01094095348029       -5.82221504463970        0.58657667136536
C            1.24377801130391       -5.40675032572099        1.64710837005916
C            1.05625462536699       -4.05378395986577        1.89970806343258
C            1.64024946880058       -3.12286575272163        1.08611121079003
C            2.42404605745302       -3.52661317021603        0.00160958776934
C            3.03734817497390       -2.57227186148197       -0.85650977608485
C            3.87689405271974        0.66014518902899       -1.99401346992010
C            4.55192317292745        1.47693263035105       -2.91251669811842
C            4.47500917722936        2.82649572400496       -2.77007213930937
C            3.72590676711439        3.40517832232176       -1.71029099350210
C            3.62154737539317        4.79614268604759       -1.52570937898962
C            2.88953541935358        5.30718728117117       -0.49059528341406
C            2.23227387088904        4.45762242006545        0.40227737700540
C            2.31363965244743        3.10357906743607        0.25099053736857
C            3.05709729169607        2.55371741415322       -0.80114573694488
N            3.15967943859624        1.19543294380114       -0.98086704125090
H            5.27031757820543       -3.95616469256794       -3.96439077328328
H            5.64405828204911       -6.33524309203203       -4.45297659299897
H            4.62960950966915       -8.05301776912398       -3.01544367292874
H            3.25827980417084       -7.42204930399932       -1.11469836587295
H            2.13700387945759       -6.87603239003819        0.41816578621540
H            0.78098846605453       -6.13636512889413        2.29134975578950
H            0.45184655902802       -3.73944462505085        2.73471306012493
H            1.50965882740316       -2.06884821836076        1.26207543741521
H            5.11678065508263        1.02719322250641       -3.70973597377978
H            4.98398212383911        3.47508029007249       -3.46163300747993
H            4.12696735037660        5.45386456827017       -2.21142483301404
H            2.81760718585890        6.37436720994533       -0.35977765551176
H            1.65878265451467        4.87509702354428        1.21348761456671
H            1.81423466530688        2.43492361742956        0.93005907819056
