53
 energy: -11.368353293279 gnorm: 0.000739711021 xtb: 6.5.0 (97a52f5)
F            0.87324338554171        0.09341851319191        0.06963899685261
B            2.26021506750849        0.10282858809649        0.10090661997256
F            2.74748259887708        0.09828179269744        1.39987755898560
N            2.78796843641496       -1.13729243351332       -0.63773938110096
C            2.56326290564369       -2.40343713736119       -0.25943673589235
C            3.24626044770714       -3.22299052776543       -1.16663058498650
C            3.88649022124463       -2.41524230044570       -2.09548046098742
C            3.59663555270384       -1.07374802631263       -1.77432340873808
C            4.01784328855675        0.12966203037145       -2.38811085932098
C            4.86129214475426        0.14413930695485       -3.59640160644382
C            6.14862100602714        0.76193832035119       -3.57564353049770
C            6.66437351086380        1.32661156324046       -2.39042212888699
C            7.88579811680628        1.93433272525491       -2.36395458275077
C            8.65590170919723        2.00767210326897       -3.52364471593171
C            8.20120088893273        1.45489682098386       -4.68521019573674
C            6.95236638189728        0.79789718693346       -4.74945775916401
C            6.49425235609912        0.19795822719150       -5.95678989465842
C            7.33164447985239        0.23687680055436       -7.18027684013841
C            6.87601671316238        0.86492047949254       -8.34639438693810
C            7.65513362192945        0.90183498033623       -9.47897971408267
C            8.90644167016951        0.31656883414223       -9.48016287468819
C            9.37693636458567       -0.30890762935408       -8.34185122291303
C            8.60269417776799       -0.35082270082992       -7.20604919283629
C            5.21920427867335       -0.43545789722852       -5.97637818483109
C            4.73615408078076       -1.07304110280960       -7.14061669592834
C            3.50426335852900       -1.65865402161239       -7.17238453612043
C            2.68862020958482       -1.63709803540405       -6.04210667671728
C            3.12726369288937       -1.04765976586551       -4.89226105814778
C            4.40352111738001       -0.45272212167760       -4.81036947707813
C            3.57167633291254        1.31962873272806       -1.76629248709114
C            3.76616939671875        2.66904236914758       -2.12506100024380
C            3.09904327832666        3.45653963989231       -1.19784089190780
C            2.47923197533355        2.61633417469899       -0.26447555286033
N            2.77077986936876        1.35818697556618       -0.62333108611009
H            1.97224411397254       -2.70124717878387        0.59098021103927
H            3.27510085848087       -4.30059083415679       -1.14174991579190
H            4.50038391261955       -2.74521219293850       -2.91636469275078
H            6.07734573599034        1.27234381106243       -1.49103873560765
H            8.25661036973179        2.36294415559492       -1.44745984488734
H            9.61452182563939        2.49932195657812       -3.49821020479864
H            8.80046949910565        1.52330635897227       -5.57517219826332
H            5.90626444284368        1.33203224611482       -8.33996512623738
H            7.29010597689393        1.39085486095680      -10.36715089353546
H            9.51512340248567        0.34753948162051      -10.36889264256216
H           10.35256532266467       -0.76651198895667       -8.34497431771872
H            8.96293903418050       -0.84887912344377       -6.32245334970287
H            5.35949554409772       -1.10035814345026       -8.01621152605960
H            3.15621929861893       -2.13660253737010       -8.07335086096002
H            1.71199851898233       -2.09111497172771       -6.07824914436621
H            2.49091632557523       -1.03339417618513       -4.02559085096394
H            4.33117964727436        3.01821645746856       -2.97270884844568
H            3.05811808543152        4.53401598913809       -1.19889773866196
H            1.87435544867032        2.89523936459158        0.58256522819205
