43
 energy: -9.188354007254 gnorm: 0.000847918247 xtb: 6.5.0 (97a52f5)
F            0.91440908042831       -0.03844472403990        0.06384898503360
B            2.30139203711920       -0.02411175955175        0.08951481414240
F            2.79023253234108       -0.01544384886830        1.38787007217704
N            2.83185224718163       -1.26652923700192       -0.63986626299984
C            2.60173525614895       -2.53007227943409       -0.25430520136068
C            3.28866322206406       -3.35680362265437       -1.15102842832157
C            3.93671599102502       -2.55689778007269       -2.08239928762650
C            3.64740481061467       -1.21247777694347       -1.77323399955583
C            4.06664132611453       -0.01413911946160       -2.39423550646629
C            4.92077901726407       -0.00494964149189       -3.59636496344701
C            6.20504631308008        0.61704213738339       -3.56857457295814
C            6.72668100685798        1.19085955942685       -2.38917532421423
C            7.95629149624440        1.78083255078127       -2.37156958043266
C            8.73741280655629        1.82470409444260       -3.53071284307607
C            8.28277501856239        1.26836429466879       -4.68759490118174
C            7.01327830894486        0.64173649627114       -4.74212084371791
C            6.54940533453795        0.04366132540719       -5.91381052244559
C            5.30286727190941       -0.57994484370303       -5.96954574121742
C            4.83164068241035       -1.17744399655255       -7.16460938873950
C            3.60086019004539       -1.75798480074905       -7.21642813283311
C            2.77738621812926       -1.76915035217779       -6.08617598250697
C            3.20019678163885       -1.20648770314509       -4.91783698256670
C            4.47366660366551       -0.60724563927704       -4.81063894060101
C            3.61321564609992        1.17886637946746       -1.78614452448180
C            3.81050859268028        2.52539997865131       -2.15197869015038
C            3.13963300918787        3.31932670795678       -1.23171838092770
C            2.51481169289328        2.48662707746101       -0.29588981125467
N            2.80617623518792        1.22523192697525       -0.64647625891851
H            2.00324411742937       -2.81907702111283        0.59392154300881
H            3.31328855234853       -4.43424439622023       -1.11947026501051
H            4.55383449493537       -2.89367665903618       -2.89800885845739
H            6.13863138440228        1.15389681180542       -1.48950046587515
H            8.33091453057292        2.21575710920066       -1.45965747629814
H            9.70541043952462        2.29745635079734       -3.50341820318639
H            8.88812246161764        1.29615850428876       -5.57696985752906
H            7.16595562034726        0.06459524905049       -6.79377585380915
H            5.46075464055514       -1.16155912450184       -8.03767909306826
H            3.25435538650035       -2.20684798449274       -8.13277774460748
H            1.80222534999778       -2.22422724557627       -6.14187874431187
H            2.55433088979923       -1.21145625853935       -4.05806747821938
H            4.38049631855874        2.86716789222943       -2.99916448705414
H            3.10117477276817        4.39684396008504       -1.23846392580113
H            1.90802231170988        2.77174740825404        0.54781211086884
