79
 energy: -16.690823241451 gnorm: 0.000381990121 xtb: 6.5.0 (97a52f5)
F            0.90748263663603        0.12330852747730        0.12768164853999
B            2.29338992993927        0.05468197803533        0.19050601452164
F            2.74209409885863       -0.09851460568806        1.49593721442377
N            2.77757036136718       -1.13550241352554       -0.65244081813615
C            2.48170213983161       -2.41476929322973       -0.39906846888401
C            3.14367971734602       -3.18377379481289       -1.36921189489907
C            3.84059208206835       -2.33112260166055       -2.20604409355084
C            3.61117732006790       -1.00513354570942       -1.76697842891776
C            4.10333045509267        0.22293328831433       -2.25004864795131
C            4.97382000474150        0.30128727755937       -3.43486719946102
C            4.68137083142001       -0.42662447252509       -4.59312267190341
C            5.49741839464313       -0.36364846488270       -5.69365566591426
C            6.65224220752051        0.42695127755819       -5.69486495996641
C            7.49260703924230        0.45459469773718       -6.87366955646246
C            8.67713696790343        1.08817556472560       -6.98035169381134
C            9.51456870099372        1.10378050264555       -8.16049006713583
C           10.76886966237832        1.72456315717347       -8.11069315052612
C           11.59292797989033        1.74806588547821       -9.20613871260484
C           11.21049367755828        1.14881202037934      -10.41350300019749
C           12.07945484208240        1.17319360026288      -11.60056062124111
C           13.47401437570387        1.07096192084635      -11.49344388196303
C           14.35342296342835        1.46391671921879      -12.61217967694744
C           15.49903079538823        0.72102589098221      -12.91419318610333
C           16.32384502995265        1.08406764192015      -13.95403715264027
C           16.03169092532140        2.19950059063039      -14.71430463651881
C           14.91137249399009        2.95454525662184      -14.42751914606463
C           14.08350754675054        2.59528037429756      -13.38900690678424
C           14.11374480387416        0.54279509105998      -10.27242904414321
C           15.30818824871573        1.09339211507264       -9.79754089894428
C           15.91529717937245        0.59712782247234       -8.66682217847811
C           15.35146262594178       -0.46369513739611       -7.98532088158623
C           14.17783082738725       -1.03042519066411       -8.44223268612570
C           13.56716959889951       -0.53786698418014       -9.57241296494403
C           11.42900398779332        1.29774230281912      -12.92293819067759
C           11.84716278025552        0.52893108634909      -14.01298327732725
C           11.22914675169241        0.64313094766372      -15.23707745858281
C           10.17661506406096        1.52170658830044      -15.40290846988549
C            9.74211123280415        2.28548337375719      -14.33742031314927
C           10.35713662461137        2.17473769999690      -13.11135560571059
C            9.94796184520503        0.54470705161760      -10.46719700780620
C            9.12427662806591        0.51825035402453       -9.37140701488016
C            6.94231706402950        1.16045950872512       -4.53852779088752
C            6.12309514344668        1.09952399429384       -3.43901946765700
C            3.71252142987280        1.36833676488947       -1.52970264292423
C            3.97694332940089        2.74046930838277       -1.75506628341973
C            3.32931405496113        3.46618074569290       -0.77154965574454
C            2.65047601290966        2.57107401009754        0.07034864384973
N            2.88880028206683        1.34235644142239       -0.40044642400960
H            1.86007351401803       -2.75960874038805        0.41059096049673
H            3.12073304878930       -4.25937428391519       -1.44175174493594
H            4.46762239505917       -2.62347547064298       -3.03087039386426
H            3.78752886903852       -1.02536255241097       -4.61899594216594
H            5.25317724731460       -0.93118384443991       -6.57523036700775
H            7.13073641578053       -0.09922863896508       -7.71996082973790
H            9.05566315418578        1.61629716240391       -6.12488490983467
H           11.08614859828786        2.18561634348120       -7.19118513306811
H           12.54975851138071        2.23671207897866       -9.14904853733026
H           15.72305262068679       -0.15204422546011      -12.32613807783934
H           17.19914017247138        0.49615517331068      -14.17679938219515
H           16.67790295098536        2.48122437363121      -15.52943800372040
H           14.68482125744133        3.82649221270821      -15.01889667749886
H           13.21480781967900        3.18814620730352      -13.16161351139203
H           15.74533171333995        1.92256024600159      -10.32641378915766
H           16.83277428808915        1.03709355462905       -8.31180764937431
H           15.82783743305278       -0.85000317601334       -7.09918981517113
H           13.73927108886492       -1.85978629686251       -7.91196337645442
H           12.65680946170874       -0.98473804211501       -9.93209108922519
H           12.66282747649337       -0.16050138167979      -13.88151974507391
H           11.56670586222014        0.04550198059977      -16.06791598349560
H            9.69378220001666        1.60993399481592      -16.36231520923917
H            8.91971860687432        2.96981829757833      -14.46671899459642
H           10.02168159954994        2.77232635494204      -12.28144836141394
H            9.63402798300806        0.08396931818626      -11.38772264704256
H            8.16290183210021        0.04377526531313       -9.44907541967846
H            7.81764016953492        1.78390746575652       -4.50885795959928
H            6.37426451185978        1.65110374032040       -2.54979814479189
H            4.55838413992660        3.14758916241821       -2.56448815201110
H            3.33389509027076        4.53999017217639       -0.67352636457991
H            2.03845127247788        2.79944867410731        0.92722422513451
