77
 energy: -16.578519245063 gnorm: 0.000621888871 xtb: 6.5.0 (97a52f5)
F            0.92075418830102        0.25380271222728        0.13850880820503
B            2.30877026652135        0.21218318128839        0.14895005680475
F            2.81200197091684        0.14860408324424        1.44179442560357
N            2.78249390657024       -1.02009039198573       -0.63730462458648
C            2.52796523194569       -2.28622108816418       -0.28832592655280
C            3.16616161203129       -3.10286278000702       -1.23464287718353
C            3.80695176123114       -2.29274353989008       -2.15536097301785
C            3.56654138809493       -0.94581122935266       -1.79309094839752
C            4.01170363724451        0.25723095998005       -2.37246510263802
C            4.82936095921756        0.27567876019333       -3.59827745729862
C            4.49360392229938       -0.51927566298567       -4.69755015843169
C            5.26395428771610       -0.51587137763534       -5.83549000328839
C            6.40232163952049        0.28164503190266       -5.92570972356469
C            7.19893762523456        0.26310137320903       -7.08474041552387
C            7.89844140504412        0.20249563014213       -8.08635153729550
C            8.71081312938229        0.08330834975006       -9.22747482516014
C            9.60900156375878        1.08783636071966       -9.58242198947096
C           10.41692192969367        0.95352904123860      -10.68546272404739
C           10.36681522937380       -0.19729699256370      -11.48044270888543
C           11.23711033186103       -0.36321309441388      -12.65893175651871
C           12.57173037556289        0.06316884648012      -12.64668173986877
C           13.33286382816861        0.22371073009459      -13.90142466611753
C           14.67891390367443       -0.14899993111167      -13.97041115460735
C           15.39553186767942        0.00171476008154      -15.13525618478400
C           14.79143231371408        0.53347462512010      -16.25763684550595
C           13.46607294149258        0.91882481134238      -16.20946909911366
C           12.74511130788874        0.76952036243709      -15.04721246464361
C           13.27329154792554        0.34826483841076      -11.37934764954884
C           14.17059354282495        1.41670186025255      -11.28633994651505
C           14.83603930914283        1.68199431264568      -10.11157688979876
C           14.62938207144137        0.88549135415396       -9.00230972016134
C           13.75652266234651       -0.18230165461700       -9.07424235955227
C           13.08943875610850       -0.45187701788649      -10.24683611627007
C           10.65621044141588       -1.01761225619945      -13.84970775391206
C           11.37830149093492       -1.96136006866210      -14.58666962874406
C           10.82326198405563       -2.57549422701055      -15.68566093025989
C            9.53361811692054       -2.26914777995705      -16.07330597832712
C            8.79864375152932       -1.34695150144812      -15.35440366665832
C            9.34949406947249       -0.73020191911982      -14.25457663920685
C            9.44810366412305       -1.19255376353633      -11.13034137765727
C            8.64287469147820       -1.05643125462987      -10.02617187204268
C            6.73839248462055        1.08031538779182       -4.83509076120420
C            5.96906584499040        1.07889290105581       -3.69593771990898
C            3.63062888236991        1.43816125358788       -1.70859024200947
C            3.86559748263803        2.79757829739626       -2.02491496493900
C            3.24932093789329        3.57277210050780       -1.05837524786187
C            2.61961360567023        2.72152826568738       -0.13714009903725
N            2.85553177121151        1.46955214254740       -0.54485519578127
H            1.95024792094538       -2.58947413711159        0.56909414190786
H            3.16505695971293       -4.18113749110864       -1.23654202030538
H            4.40501143384002       -2.62495317272725       -2.98655122684896
H            3.60684742804632       -1.12707770659765       -4.64948021151380
H            4.99522261284620       -1.13490320731066       -6.67436956114906
H            9.66558187706020        1.97406951245703       -8.97390653498312
H           11.10277908406437        1.73894179329231      -10.95076494353015
H           15.14790699024341       -0.56897057336617      -13.09754993663838
H           16.43020769362127       -0.29730657512563      -15.17242953657191
H           15.35382134015136        0.64853075304952      -17.16968358253346
H           12.99537613160845        1.33660320838151      -17.08423153986947
H           11.71437318622595        1.07592346400738      -15.00843463936914
H           14.32878711111765        2.03951011234461      -12.14967202599293
H           15.51916602987159        2.51363470262574      -10.05664005482477
H           15.15040448576067        1.09614229459918       -8.08278393435916
H           13.59786113311722       -0.80600101000008       -8.20986497008860
H           12.41640208322504       -1.28941439921842      -10.30459274208345
H           12.37999546917807       -2.20646389326124      -14.27947517675418
H           11.39593443443075       -3.29744078781356      -16.24434475718423
H            9.10040011820375       -2.75126303895704      -16.93425125882056
H            7.79149694692299       -1.10973961639255      -15.65559828007003
H            8.77867490647032       -0.00856112698821      -13.69626634858515
H            9.39253916634255       -2.08288105753397      -11.73225574136057
H            7.95002758140647       -1.83656587240692       -9.76094715908372
H            7.61903305162390        1.69680408636023       -4.89427636731799
H            6.25557288381601        1.68115216950096       -2.85150985205156
H            4.40835314792442        3.16190526168610       -2.88026295744154
H            3.24527859414093        4.65044513247878       -1.02323840923571
H            2.04230056483280        2.99297637288148        0.73116700204449
