71
 energy: -14.895089532286 gnorm: 0.000637097430 xtb: 6.5.0 (97a52f5)
F            2.07821049451258        1.46041872384216       -2.34211864663051
B            3.10212170102196        0.88679143145265       -1.60442587280111
F            3.36995575008245        1.59919769879741       -0.44473754632070
N            2.66654681633684       -0.52415107060544       -1.19104064827972
C            1.56861605520973       -0.80710672976905       -0.49564557314151
C            1.59761760295154       -2.19332380993988       -0.24148665317457
C            2.73992302631510       -2.71624699241836       -0.80158655401501
C            3.44072948820408       -1.65254403970284       -1.42811161791187
C            4.64289689230121       -1.62851121323397       -2.14652640789379
C            5.43188435661742       -2.85383149576518       -2.38335892927337
C            4.83422845140408       -4.00609687959244       -2.89617799367343
C            5.57343994532906       -5.14602625966923       -3.11460027067720
C            6.92283987670014       -5.16276315578634       -2.82580068164272
C            7.53255386030915       -4.03381150153037       -2.31764411425238
C            6.79776078007813       -2.89119498973913       -2.09869345710988
C            5.04151813675461       -0.37860779829031       -2.65551553082875
C            6.13621982076515       -0.08083166310260       -3.51658533212890
C            6.09436313771299        1.24867387766079       -3.81163017859376
C            4.97873374943111        1.84009455665514       -3.14401812525630
C            4.58145822868181        3.22626963569866       -3.22882734561086
C            5.13747599587601        4.07939486983932       -4.19620056830208
C            4.75310299694370        5.38744579898904       -4.29260003418715
C            3.78816072012999        5.92217588983081       -3.42551380870733
O            3.38760825548394        7.26110962603545       -3.47724801424607
C            3.24387001436034        7.87832958944930       -4.66506133364839
N            3.32300155042797        9.25434459202790       -4.87275320944583
C            3.13771397802369        9.58711332419033       -6.17187750275685
C            3.18445466971101       10.90397118947415       -6.67442123435581
C            2.94122117419916       11.20772348189660       -8.09664540043138
C            3.80493241189152       12.03909017322293       -8.81172365616271
C            3.57194800644720       12.32484977721187      -10.13731858695744
C            2.47360316486830       11.78980648605755      -10.77925247966742
C            1.60721223859126       10.96583009601378      -10.09007112820236
C            1.83645707601859       10.67672291274116       -8.76465472513829
C            3.46526836708998       11.90700846449418       -5.73964072901899
C            3.55309686382760       13.31868185062390       -5.87670002573263
C            3.83139579126922       13.84688942023872       -4.63932797446318
Br           4.05416246069966       15.67684159449354       -4.23617076223275
C            3.91746268540995       12.78952296283283       -3.70429116074902
Br           4.27432639285905       12.96667001974056       -1.86268065596036
N            3.69269919991277       11.66609736493143       -4.38565014181335
B            3.65693914135795       10.26217972177552       -3.76797569457781
F            2.67114098825267       10.23320825396157       -2.79736425098027
F            4.90724435608989        9.97938895512636       -3.24666686464988
C            2.91714798687987        8.33905743458127       -6.86858089123068
C            2.96212182893196        7.32530218378732       -5.97582694983014
Br           2.58553299919869        5.53339042949063       -6.41976284170575
C            3.25477204265689        5.08195818448838       -2.43810014226626
C            3.63775758204784        3.77493016481835       -2.35045673683723
N            4.37883587971376        0.81979705105457       -2.46600963648757
H            0.82513336358025       -0.08807924019170       -0.19130388296585
H            0.85438124046046       -2.74622151464733        0.31084118608613
H            3.05434880008939       -3.74554146596954       -0.76704985273351
H            3.78566777024370       -3.98649069297811       -3.13793143735586
H            5.09814639044541       -6.02680384986713       -3.51446009511198
H            7.49991486096553       -6.05678511235403       -2.99653160844281
H            8.58563263947810       -4.04806284181211       -2.08885575284707
H            7.26856770660505       -2.01542328298954       -1.68652854951576
H            6.85113865278922       -0.79326764112550       -3.89154857053829
H            6.79761793469902        1.76656296265554       -4.44152475640800
H            5.86702597063835        3.69010742243984       -4.88378192254164
H            5.19129583103662        6.03218546469700       -5.03395118882521
H            4.67194706653686       12.44079837370939       -8.31647455703917
H            4.24998028584097       12.96618550857684      -10.67635790851370
H            2.29176872909283       12.01589172773480      -11.81719979997949
H            0.74718686081339       10.55126238694084      -10.59015656835524
H            1.14865763894122       10.05224621451422       -8.22119691261556
H            3.40334534472837       13.88458921824643       -6.78014559202706
H            2.72763555777404        8.22799580367536       -7.92262526215399
H            2.53058273040975        5.49199498926710       -1.75648216527825
H            3.22161963502576        3.14685538112736       -1.58600618282355
