71
 energy: -14.893160752539 gnorm: 0.000895284584 xtb: 6.5.0 (97a52f5)
F            2.13764517601283        0.78049473749988       -0.61409759797765
B            3.50582165025835        0.66777539664247       -0.41477410328915
F            3.93995673346937        1.41977849221504        0.66720089254834
N            3.84274855414515       -0.80058783910871       -0.12745343233545
C            3.32910251918056       -1.51154102440451        0.87289132402084
C            3.97244015475462       -2.76485216286608        0.85003142047123
C            4.87882155935379       -2.77194533532183       -0.18510139383288
C            4.80663688059341       -1.51138196956081       -0.83259038825925
C            5.51064877239817       -0.99118699315911       -1.92837165885458
C            6.51034671779131       -1.79026024313148       -2.66383980586235
C            6.21791029954103       -3.08378577610163       -3.09856163605868
C            7.15125215807438       -3.82387128492839       -3.78764834810843
C            8.39531347885824       -3.29141600024966       -4.05823671186185
C            8.70384535713643       -2.01383328574099       -3.63757523790170
C            7.77353670226382       -1.26981276538163       -2.94865622685907
C            5.17680365171893        0.31788840292866       -2.31713894441018
C            5.60762448451293        1.05284050016258       -3.45575590850926
C            4.93140857788836        2.23986285980141       -3.47426687449135
C            4.06578693537753        2.29498783870261       -2.34549173789890
C            3.10693584007721        3.35718228993235       -2.05162062213100
C            2.70641672204309        3.64345330989191       -0.74635135411204
C            1.78204071959529        4.63129685667987       -0.48858153420861
C            1.20998958022328        5.33298830121583       -1.52353248779104
C            1.55311801911086        5.04778691199760       -2.84716448356424
O            0.91288412570154        5.71939365350686       -3.91267984234425
C            0.30096501084641        4.99547836823458       -4.84974581743716
N           -0.19746240764856        5.49210011805203       -6.06378528878920
C           -0.75991838766944        4.52386643388443       -6.81625053101866
C           -1.31758872529642        4.72738094935584       -8.09725008193053
C           -1.92263100323379        3.62810700941722       -8.87107993259773
C           -1.59502635601836        3.43191389070644      -10.21382706256977
C           -2.15904572622632        2.40482523788370      -10.93480607320597
C           -3.06210622227146        1.55102902006482      -10.33478019944807
C           -3.40104241866230        1.72886368831797       -9.00881329785872
C           -2.83937715349887        2.75435972492351       -8.28368883840056
C           -1.25969918404436        6.03563537657649       -8.58834423870661
C           -1.75143604398069        6.60717152518741       -9.79342453561808
C           -1.45990872365649        7.94924822186741       -9.77391566283794
Br          -1.88573674737261        9.19794322918806      -11.12321366919469
C           -0.78950258229582        8.25052983185667       -8.56517092158292
Br          -0.17402343872238        9.95076914581980       -8.03525552056962
N           -0.69281960580304        7.10369159501051       -7.89340769901348
B           -0.06443100816681        6.95433122718762       -6.50156457477449
F           -0.75105238409429        7.76840298328800       -5.61808044628872
F            1.27473441797172        7.29333405335251       -6.58588565309204
C           -0.62878450957397        3.29882189768295       -6.05031104940252
C           -0.01417851739845        3.57574486100380       -4.88239186017563
Br           0.31024018172232        2.29385787464579       -3.54182385166373
C            2.53149753276266        4.08455048503364       -3.08853339706345
N            4.24679864379505        1.12836642290187       -1.68339673150040
H            2.57938229241573       -1.15885150700565        1.56277648754669
H            3.79302881212854       -3.57618768371465        1.53758994715226
H            5.54142705581313       -3.57924350623521       -0.44721107534192
H            5.24070855289249       -3.49098550085935       -2.90490569744841
H            6.90924228199037       -4.82033111575831       -4.11936038740290
H            9.12509579503642       -3.87268774030649       -4.59760102314648
H            9.67619840890459       -1.59887807913755       -3.84700041215133
H            8.01859946030855       -0.27933934952554       -2.60622645779200
H            6.31508860793911        0.71296413047886       -4.19279750544094
H            5.03545215361056        3.01153040854461       -4.21860608114746
H            3.11629348066970        3.06125668386963        0.05773600282926
H            1.49162997390027        4.84244131604714        0.52765563803225
H            0.47023591012188        6.09106232789123       -1.33666166495449
H           -0.87517716105677        4.08506244459314      -10.67594670319518
H           -1.89262600164345        2.26456759456011      -11.96964344506083
H           -3.50280868058611        0.74707898405981      -10.90128311767989
H           -4.10978518820487        1.06488627093785       -8.54153762552602
H           -3.12098560141073        2.90688234262186       -7.25620350213106
H           -2.28219741135655        6.09328746064180      -10.57641443717427
H           -0.96607454983389        2.32291280440165       -6.35513048525833
H            2.80072179691983        3.86989367136101       -4.10691482644020
