31
 energy: -6.406676250512 gnorm: 0.000417423258 xtb: 6.5.0 (97a52f5)
F            0.90833495427553        0.21827449509895        0.09548925454876
B            2.29086605682126        0.13880104338217        0.15465906700777
F            2.74727243339627        0.08336838837899        1.46221793693511
N            2.75527826584121       -1.11766457277962       -0.59355792892379
C            2.44205644561270       -2.37474509444084       -0.23794674657310
C            3.09269770472861       -3.22162782960034       -1.13888830335242
C            3.80566863072536       -2.44448881391316       -2.04422254480404
C            3.59470361213243       -1.08837054373789       -1.71535097866418
C            4.09600426580317        0.09166135494221       -2.29541852941131
C            4.96720533117258        0.06912343542058       -3.48396782253238
C            4.65469650003457       -0.72441415511063       -4.59056504625202
C            5.46864519421141       -0.74177708681885       -5.69981803506561
C            6.61202007594153        0.03110583212240       -5.73310507980915
C            6.93976822095255        0.82252241770935       -4.65055776892388
C            6.12942268066550        0.84255601604514       -3.53873123853630
C            3.71516298068159        1.29443337265274       -1.67237275112190
C            3.99129820340164        2.63811168839053       -2.00484915029752
C            3.35413300525664        3.45037124970608       -1.07426679465816
C            2.67334425124436        2.63792330088518       -0.16398653256205
N            2.89517228063375        1.36691907921904       -0.53827875710262
H            1.81463173026478       -2.64474908038127        0.59564262928207
H            3.05563665134112       -4.29917548572050       -1.12629235979563
H            4.43209910366780       -2.81074844199207       -2.83932996240448
H            3.75151093170737       -1.30926182935417       -4.57500561770835
H            5.21158082095597       -1.35759498006659       -6.54601837288822
H            7.24792233632718        0.01648182599091       -6.60300558873518
H            7.83355242547304        1.42413028156387       -4.67578739747435
H            6.39757135448784        1.44259628282846       -2.68663843624336
H            4.57079685822998        2.97385886028466       -2.84760833982731
H            3.37437349385378        4.52833374665019       -1.06093131795607
H            2.07068320015838        2.94017524264418        0.67676251384947
