31
 energy: -5.115530170033 gnorm: 0.000899036557 xtb: 6.5.0 (97a52f5)
F            4.39315040028054        1.68791364376676       -0.26755804817981
B            4.21043043367137        0.44333236889181       -0.73940807169378
F            4.35198703149212        0.17083327530748       -2.04716569366864
N            3.98213874416112       -0.67068191673483        0.22099182451025
C            4.67206345529906       -0.77724578146564        1.34129653429946
C            4.25829291048832       -1.89847474338114        1.96110681655492
C            3.30611754522441       -2.50029664190049        1.24391045127322
C            3.08614841225543       -1.74714500255196        0.10414292808669
C            2.18638540219135       -1.99884040697679       -0.90474300427750
N            1.95913294693014       -1.29274918109110       -2.02396736563600
C            1.08118683764036       -1.54680492281234       -2.96208027402917
C            0.84315055440369       -0.86030230833283       -4.10181092177534
C           -0.10257242438136       -1.17200830794341       -5.06971852772193
C           -0.99176243093506       -2.23681658013423       -5.07255655467036
C           -1.08675041486482       -3.16011760170016       -4.11610994694060
C           -3.89851338062778       -5.14705564848665       -4.69143640502193
C           -4.92737265375107       -5.09566201273383       -3.79017122766677
C           -4.42143665826813       -5.41582444243348       -2.52769710434687
C           -3.07629335893896       -5.66694684402825       -2.64822603850142
C           -2.82015645521928       -5.49088704485838       -3.94050154964228
N           -1.84072681153533       -6.92353605186849       -3.60944480107736
H            6.12415830171978        3.03513353985515       -0.69610994760147
H            6.86992879100521       -2.99847235849794        7.55223823025376
H            3.21323968667720       -5.36367386724829        4.83927854409090
H            1.45398120885965        0.01271418809942       -4.26916376553084
H           -0.15051332793113       -0.50851371849780       -5.91990971099331
H           -1.65904700313977       -2.32406703996670       -5.91656594008658
H           -1.76407046804422       -3.96679922774925       -4.12956932067084
H           -5.95305787530286       -4.84707235836342       -4.02361630830661
H           -4.98628822086704       -5.46034051338928       -1.60654682088314
H           -0.46928118074994       -4.67205249337700        2.56245201783899
