20
 energy: -4.081348328611 gnorm: 0.000712443233 xtb: 6.5.0 (97a52f5)
F            0.88601682899047        0.01661754261488       -0.01779094716996
B            2.26661862648148        0.01658281107047        0.02349556712211
F            2.75805724021328        0.01785150221181        1.31441932909276
N            2.82279080837869       -1.19122971254062       -0.75740703498482
C            2.86538973903739       -2.55303036057789       -0.81583243756279
C            3.65137436303865       -2.82248762792775       -1.92149139302102
N            4.07886598859748       -1.68071734629730       -2.52397745413270
C            3.55735229961962       -0.67082828664688       -1.79212619936599
C            3.56065616769399        0.76629968647241       -1.79847160734085
C            4.17787072720102        1.65458561234602       -2.66938674696895
C            4.01751448057132        2.99891134810699       -2.44494621969218
C            3.25540224387567        3.44508539023509       -1.37095894996623
C            2.65790469604214        2.54012614503910       -0.52817648067112
N            2.81700433727328        1.22693816730824       -0.75151921325387
H            2.38319332572945       -3.23810747599200       -0.13626059347582
H            3.90965604963814       -3.80876228440913       -2.28390481569238
H            4.76264356723903        1.28402193503847       -3.49325986967953
H            4.48446508888330        3.71292884175335       -3.10391752331332
H            3.13352414982608        4.50221885455012       -1.19983425161495
H            2.06093927166950        2.84915525764463        0.31311684169161
