39
 energy: -8.270336485796 gnorm: 0.000704571157 xtb: 6.5.0 (97a52f5)
F            1.27162045051536        0.47851709888050       -1.59673469772672
B            2.04249932768668        0.62466182776949       -0.45719042460425
O            2.95582693163440       -0.50820572253422       -0.31994382592823
C            4.09194357887430       -0.48093017255853       -1.07065262199963
C            4.72877052400945       -1.77790720068879       -1.31989552311206
C            4.15447837051474       -2.94509043071053       -0.82872412355940
C            4.74380330293082       -4.16716475483428       -1.05953218410029
C            5.91685431787501       -4.24267089778119       -1.78400960582064
C            6.49932370221336       -3.09178293778302       -2.27705087587413
C            5.91084750621442       -1.86900339408516       -2.04795405460816
N            4.65118123698881        0.58510911369128       -1.56564226976195
C            4.06959579972884        1.78225995965029       -1.22670162489345
C            4.74375624031882        2.96371282955283       -1.52374518647435
C            4.20001012610379        4.17842006610220       -1.17749506666574
C            2.98810761608006        4.22873069798190       -0.52960179557426
C            2.30445298233242        3.05429673881726       -0.22647354806036
N            2.86960398943068        1.87757666848751       -0.59919028110497
N            1.10525957556692        3.13709238685055        0.43808680707161
C            0.63242858856096        2.01541107826200        0.89942499386896
C           -0.59335959494646        2.05702355538672        1.70308760276837
C           -1.24491525342923        3.25975335892459        1.95706035691457
C           -2.39395645459963        3.28661680465981        2.71400923326956
C           -2.91086249001855        2.11438203634257        3.22931676179408
C           -2.27442879841836        0.91347660752169        2.98554476771619
C           -1.12549308882880        0.88475783452237        2.22844180532526
O            1.18370102050810        0.78314106385894        0.71472349181369
H            3.23906995218601       -2.87377562964620       -0.26658633194445
H            4.28892830724489       -5.06517055884720       -0.67465526423565
H            6.37803467766770       -5.19987562173040       -1.96373612616661
H            7.41514683104039       -3.15042537393006       -2.84207501580033
H            6.35738797731966       -0.96698204201216       -2.42818501652797
H            5.69484925650429        2.90701502006409       -2.02330716154480
H            4.72529086936339        5.09010056640613       -1.41032095907941
H            2.55314393516598        5.17077511552533       -0.24549423497219
H           -0.83428402664650        4.16816242666171        1.55238011043905
H           -2.89102025916093        4.22368012812832        2.90458083038597
H           -3.81070991786906        2.13652353752002        3.82179906050402
H           -2.67684109807031       -0.00163620148207        3.38817700858709
H           -0.61992601259226       -0.04517558294424        2.03157498968239
