54
 energy: -9.896307502441 gnorm: 0.000841554762 xtb: 6.5.0 (97a52f5)
C            0.97784057641401        0.07603808908262        0.16765493574945
C            2.51000984564488       -0.04635074058769        0.05227048291298
C            2.93047324030346        0.07511388361371       -1.42363412641798
C            3.14309768734856        1.11760942889967        0.84055227036688
C            2.96123156576400       -1.41302975640801        0.59170023096494
C            2.39816330902737       -2.56872219149227        0.08639111103150
C            2.77083452094443       -3.83411353314248        0.52904232197205
C            3.76547323439279       -3.93217420804628        1.52083845277227
C            4.36176485117771       -2.76823080406716        2.04005334478181
C            5.44708391293001       -2.91144590210480        3.11361861819116
C            4.84928362660316       -3.62482205644799        4.33900800938749
C            6.61081455934153       -3.74193640938161        2.54401617384340
C            5.99954830108614       -1.54540706128564        3.56542771760276
C            3.94670594799328       -1.53937851608204        1.56542762672125
O            4.16449139064863       -5.15231076912928        1.98967228955731
B            3.59812708881378       -6.43509582797081        1.55144359153953
F            4.60933120854556       -7.21680215225735        1.02024355206676
F            3.00519972674877       -7.06007931214703        2.63455198964479
N            2.52351050800893       -6.24388719240529        0.46599576430154
C            2.16443019562714       -5.04192306706331        0.00626336000401
N            1.19489393559744       -4.97075069814020       -0.97686117403242
C            0.55243065054126       -6.06765553216236       -1.51950759665449
O           -0.30323264541243       -5.95650551433349       -2.38802133440751
C            0.95124619881776       -7.36789163850273       -0.99914427155273
C            0.36812690717625       -8.53960991807061       -1.46900358917475
C            0.75339404502048       -9.75880899719687       -0.97140283357036
C            1.73275071868281       -9.82704539050495        0.00879451047119
C            2.31496150430142       -8.68011953899783        0.48082816947875
C            1.94290007304264       -7.42462279973742       -0.00696824917687
H            0.63998200245677        1.05553563762960       -0.16844061882708
H            0.65846610480600       -0.05431963476373        1.20083141084237
H            0.46996742008154       -0.67225230518335       -0.43804665049729
H            2.63386318799118        1.03889554346344       -1.83553828392618
H            2.47036689573895       -0.70380097134711       -2.02963213334129
H            4.01119879198179       -0.01716001082500       -1.52428100769473
H            2.78335929790470        2.07610828450435        0.46836600670944
H            4.22782116116606        1.11662631644020        0.74257433689840
H            2.88813400835203        1.05774823284415        1.89795899990062
H            1.65003488192352       -2.47768064957509       -0.67547628319540
H            4.47397317833582       -4.61031835381879        4.06725173294278
H            4.01913619083250       -3.05253323584937        4.75080532226155
H            5.59587676206609       -3.75238171063051        5.12157659073583
H            6.26812104549710       -4.72980806205619        2.23992885846355
H            7.39923569465756       -3.87173477346833        3.28404569210970
H            7.04110085965742       -3.25382218894961        1.67063620783204
H            5.21323461234883       -0.92618369135438        3.99504400385466
H            6.44941868916901       -1.00856675941596        2.73127150526203
H            6.76859655160158       -1.67362016820850        4.32612815335878
H            4.40081143268753       -0.65157432247173        1.95932680682438
H            0.91056519242364       -4.07944418904362       -1.35347440171508
H           -0.39064672174564       -8.47064375428129       -2.22947271459640
H            0.29659922004549      -10.66228082117087       -1.34034513704696
H            2.03501940025349      -10.78496400852496        0.39899883154850
H            3.07322745463508       -8.73060627787372        1.24161142292111
