54
 energy: -11.565058400013 gnorm: 0.000756789452 xtb: 6.5.0 (97a52f5)
F            3.85539184593378       -2.48307696856290       -1.97263649216327
B            2.94914171198298       -2.33736065107760       -0.93308440177714
O            3.24251914477579       -1.08577720655421       -0.19677065943393
C            4.46346440028047       -1.11477036312126        0.42926971372842
C            5.28146520021133        0.01570309091288        0.47050195151801
C            6.54202722528068       -0.05311232101134        1.01056417297719
C            7.01802824170082       -1.25116427944172        1.51221758775485
C            6.21799548349138       -2.37046363439795        1.50723308267272
C            4.91627195035131       -2.31602996132039        1.01655874713828
C            4.01180031151742       -3.46428246871376        1.01458583030480
C            4.07500236582722       -4.53560186030262        1.93501475303270
N            3.43001782016347       -5.69141066459757        1.59820099724551
C            2.52876622378049       -5.77959902430359        0.57741980802445
C            2.42520150042182       -4.68446064623872       -0.30724583901325
N            3.12023796359254       -3.55593367480791       -0.00735894796889
C            1.70570339186252       -4.71220423034279       -1.57994610037715
C            1.50042897452134       -5.87115035331407       -2.32375943225433
C            0.77518915126396       -5.84384063085600       -3.49276555793838
C            0.24936853735566       -4.65223483445560       -3.95829146482858
C            0.48392420767679       -3.48405314189767       -3.27652918326277
C            1.24361205975446       -3.48460670151022       -2.10516929764028
O            1.57236356505934       -2.30973650610854       -1.47703597422633
C            1.64745625459988       -6.94516587600177        0.56658629018476
C            0.34842921030077       -6.91241765016162        0.06431983309676
C           -0.45801329268898       -8.02635580207671        0.09699650722211
C            0.00556236133173       -9.20102654287397        0.65895046410316
C            1.25949980045059       -9.24630799406628        1.21511522928420
C            2.08682629758851       -8.12233883273270        1.20799517094845
O            3.29767221613217       -8.17583921533274        1.84381877557259
B            4.10760445770225       -6.97512242427891        2.13268105660429
F            5.33218959326016       -7.06461647138085        1.48345398731668
O            4.33165885113270       -6.84128340931337        3.57914889003422
C            4.71944177961291       -5.62270199652187        4.06490294531704
C            5.17257368138403       -5.54164215265573        5.38337006507948
C            5.49027113254588       -4.33288116995107        5.94860072926639
C            5.33922784283004       -3.17145991108240        5.21638519046245
C            4.89968326780985       -3.22914125768722        3.91416160219227
C            4.62916752422593       -4.44435210097204        3.28745650785967
H            4.91294275783369        0.93081468598611        0.04189869772278
H            7.16871530805808        0.82365156020265        1.02601596877693
H            8.01794146862741       -1.30703174003659        1.91020985066279
H            6.59612073014860       -3.30520584572833        1.88376231277683
H            1.92145508738523       -6.79832168010637       -1.97574414075655
H            0.61220874209285       -6.75447172829125       -4.04543550814703
H           -0.32772069284387       -4.63770216835164       -4.86847134713625
H            0.11504123424647       -2.54423974104263       -3.64769528544939
H           -0.03463389291107       -5.99148019746027       -0.33894013169258
H           -1.45347552333607       -7.98288615485178       -0.31360970556213
H           -0.62468925508409      -10.07516834481339        0.67763021073899
H            1.62082477091575      -10.14266777884625        1.68751565207783
H            5.24876270061187       -6.45170807198693        5.95186616596524
H            5.83446243287392       -4.28587880105215        6.96895575013538
H            5.55387796859275       -2.21795362911909        5.67062664589945
H            4.72177390776826       -2.31209052538872        3.38236832593259
