72
 energy: -16.729141962259 gnorm: 0.000467874335 xtb: 6.5.0 (97a52f5)
F            1.20316153291432       -0.39850203811875        0.46552747939318
Si           2.59297082332841       -0.33817120540037       -0.38191899995361
F            1.84051512489303       -0.81135620284459       -1.76952061428381
C            3.63829680251564        0.09907784426253        1.17958915744544
C            3.39447044676190       -0.66922853592002        2.33452559988367
C            2.49689408602225       -1.77656237121101        2.37801754299657
C            2.28738171434263       -2.50678395810522        3.50170923455756
C            2.95822752579769       -2.18911340493874        4.69468086240654
C            3.82327440054428       -1.14636998330045        4.72394504072272
C            4.06984227532819       -0.36430526983526        3.55944952346087
C            4.96588268169298        0.69209618111388        3.60450876795975
C            5.23384782227705        1.45258323090909        2.47625984440027
C            6.17055363238450        2.52275603464017        2.55066980685534
C            6.46859643516853        3.26798699404345        1.45970212797963
C            5.84973585563396        2.98306586934269        0.23192779967741
C            4.94819239631593        1.97491290800123        0.12943130781518
C            4.57498120244418        1.15528502901573        1.23878624360120
C            3.45547192178050       -2.04482528833135       -0.52544815492857
C            2.67064647728000       -3.20524810455138       -0.45628119523508
C            1.24459992867485       -3.18465954337356       -0.43025044668049
C            0.51378128333730       -4.32337661727137       -0.33423637400123
C            1.14950425894899       -5.57673316333710       -0.26186812560673
C            2.50311344441231       -5.65864577896161       -0.29820534539335
C            3.30499146756071       -4.48701292558568       -0.40509399460723
C            4.69189820071628       -4.56970028261846       -0.46158781669306
C            5.47515420755823       -3.42899719701291       -0.59693200231774
C            6.89343151492977       -3.51489149619337       -0.69145816358598
C            7.64927144559499       -2.40063491806497       -0.85877507434645
C            7.03640609849001       -1.13682331836496       -0.94934983636725
C            5.68846233337393       -1.01815620973785       -0.85484183418763
C            4.84701982017289       -2.14587794738325       -0.65233973441520
C            2.44046933440997        1.41826924761280       -1.10434613152026
C            2.95103919241442        1.63472052268105       -2.39193432340323
C            3.65650275933094        0.63625582717400       -3.12608967156781
C            4.16863249245136        0.88658257356734       -4.35675147960898
C            4.01581438391204        2.15371229827038       -4.95052484542525
C            3.36072173349480        3.14330886377155       -4.29280973370953
C            2.81751455936892        2.92383925795543       -2.99542245703986
C            2.18234651574342        3.94469266800702       -2.29616374798725
C            1.69523804262453        3.74432713687144       -1.00846238926200
C            1.08239591436707        4.80408542013328       -0.28180688669308
C            0.64719428152768        4.61722257988915        0.98942532471152
C            0.79704188796286        3.36437434667306        1.61279801752428
C            1.36477329217350        2.32704039780726        0.94816526599956
C            1.83080596422569        2.46017196106130       -0.39236053495346
H            1.96950142182255       -2.04210622810920        1.48471838029488
H            1.60129488828989       -3.33876687720646        3.48453655054478
H            2.78132987389878       -2.77565359484716        5.58217908033787
H            4.34168100585644       -0.89714584769520        5.63465488785161
H            5.46943583544592        0.91939849099184        4.52765838459194
H            6.64523984314211        2.73056030246687        3.49510498996836
H            7.18029841275147        4.07528902933397        1.52831636608368
H            6.09629881294682        3.57511814533118       -0.63531300055769
H            4.51291826824260        1.79102469480028       -0.83029369493570
H            0.74492248875399       -2.23532084227334       -0.49471528937993
H           -0.56329035201243       -4.27286689287952       -0.31330520746774
H            0.55434527119478       -6.47246602152415       -0.18202662418330
H            2.99090484000149       -6.61764649937402       -0.24902969274584
H            5.16590737697803       -5.53429382766825       -0.42034712507665
H            7.35917167737202       -4.48428413946092       -0.63325006472101
H            8.72230151578874       -2.47940981071958       -0.93184028363884
H            7.64548242193587       -0.25951862636824       -1.09867595129105
H            5.22827999449141       -0.05603998208844       -0.94986275551991
H            3.77809323108345       -0.33743744408901       -2.68599117153221
H            4.69702743173866        0.11125401066119       -4.88846126775858
H            4.42600071508594        2.33483364251051       -5.93127027301913
H            3.25044067034534        4.11535568420472       -4.74330218045612
H            2.08606809241692        4.91441388888931       -2.75131466778455
H            0.97575704852421        5.76456729410080       -0.75736357950285
H            0.18887175737609        5.43004205127689        1.52993585435824
H            0.45839374276135        3.23329387092856        2.62829036350993
H            1.48550619848809        1.38312409647067        1.44576893829400
