48
 energy: -11.197104630877 gnorm: 0.000660003584 xtb: 6.5.0 (97a52f5)
F            1.32008222179132        1.26039934234211       -0.23999271183464
Si           2.30547265826350        0.00184832634661        0.05476936459487
F            1.15748137012958       -1.11182033175010        0.40405904845538
C            2.44930029288111       -0.68561576208238       -1.70576498468566
C            2.33369659762766       -2.03436253124177       -1.96771035658523
C            2.46384374708802       -2.50587411115414       -3.26065479669094
C            2.70423749742267       -1.62328336167530       -4.29587827449360
C            2.80457833156368       -0.26988296056123       -4.03796334635133
C            2.67215560813299        0.19498762480555       -2.74336330986401
C            3.92687322111087        0.96745194994932       -0.18540730442024
C            5.07737088197679        0.33085917461605       -0.60254209260965
C            6.24988407745466        1.04355060290261       -0.76240690029898
C            6.27178483701922        2.39999413143759       -0.50334388336956
C            5.12076862376519        3.03956213399331       -0.08597710081347
C            3.95133774858239        2.31997260495019        0.07188740602676
C            2.91027284464386       -0.21948031709052        1.84822026142884
C            3.77055800078035       -1.28834895398757        2.11621282324404
C            4.11570471130334       -2.26233502122414        1.13623607259409
C            4.96617341580870       -3.28106965948512        1.41859177729051
C            5.53164384990613       -3.40607013399059        2.70275232951820
C            5.22744369560997       -2.50989909705938        3.67601723913369
C            4.33725383231740       -1.42793574546019        3.42126065054752
C            4.00902457577245       -0.50621275117191        4.41140650660839
C            3.12976052497890        0.54335185653279        4.15855800533292
C            2.78232569784315        1.47951058161853        5.17380985113915
C            1.91494670467873        2.49228306391061        4.92038490847409
C            1.33924506078885        2.63237286933325        3.64274343590905
C            1.64837418784262        1.76259095136151        2.64811785624640
C            2.56016377832570        0.68749514945141        2.85402782683378
H            2.10956074880093       -2.71586558293373       -1.16395541127624
H            2.37390407276786       -3.56214968106864       -3.46047700362104
H            2.80860031299025       -1.98967686533396       -5.30519549431658
H            2.98621589589614        0.42266537354264       -4.84478680865306
H            2.74760507834596        1.24925642502074       -2.53284414233058
H            5.05401300828239       -0.72404111070236       -0.81656633084217
H            7.14630164238468        0.54143964492610       -1.09116828616229
H            7.18581635802729        2.95909514044937       -0.62929834935765
H            5.13330419011274        4.09913387490675        0.11536002028697
H            3.04925070026438        2.81231895149828        0.39417980894872
H            3.68248837678005       -2.17714368955111        0.15729877532593
H            5.21277576557269       -4.00467697086723        0.65747827915408
H            6.20664206330461       -4.22155091118791        2.91009427256838
H            5.65692946524778       -2.60687683757803        4.65920556633300
H            4.43698437566081       -0.61139248287158        5.39277605225053
H            3.22020562986183        1.36987983358346        6.15202924176797
H            1.65974010419483        3.19381507020459        5.69908565469632
H            0.64689292138125        3.43878113369257        3.45803849513831
H            1.19548069462234        1.87113905868534        1.68080535876185
