48
 energy: -10.769240054023 gnorm: 0.000774836923 xtb: 6.5.0 (97a52f5)
F            1.89402887796368        0.22905780796939        0.16916560049118
Si           3.51164320388272        0.43205028341584        0.02575965399538
F            5.10089131603728        0.79535509343123       -0.12039445883960
C            3.86272698560651       -1.38015254087634        0.37429723034004
C            3.11205391028188       -2.35324261742560       -0.24725863241791
C            3.35481166097148       -3.68836705267499        0.01629955216986
C            4.35367204255142       -4.04431274494493        0.90254504635358
C            5.10882810683945       -3.06647022940307        1.52178358399000
C            4.86141165752252       -1.73299083381450        1.25454760450869
C            3.29959450393805        0.72645927645635       -1.82642505529041
C            4.04699508667928       -0.01812930089556       -2.71137107399967
C            3.92311866291113        0.19472598980984       -4.07142241452035
C            3.04618585790100        1.15422176721733       -4.54061879422754
C            2.29345103255859        1.89685211781913       -3.65066635288351
C            2.42145128315495        1.68018560069510       -2.29144295205708
C            3.44081049581569        1.56563064335809        1.53734939604967
C            3.19486511402615        1.00135829973651        2.74353627203346
C            2.93171146241654       -0.12477317897594        3.48459113754829
C            2.73722016013530       -0.13785366218696        4.83964707529664
C            2.72101131939697        0.85358738565128        5.88665698497281
C            2.86949962402739        2.21633657438891        6.04379828469617
C            3.12605838984819        3.24625544990988        5.15034486199113
C            3.30089504449767        3.13019728002545        3.83803008770277
C            3.54254216720941        3.76116709724702        2.64990902809041
C            3.71567276432224        5.16850468182847        2.54762552398403
C            3.95451444306067        5.75018660656702        1.34396908216788
C            4.04034474586878        4.96756386217241        0.17395166442949
C            3.88290361421990        3.62027092399175        0.22732855652965
C            3.62142422265687        2.95572280084687        1.45846006039738
H            2.33384475182344       -2.06115736508785       -0.93326629983554
H            2.76486300420158       -4.45017887301553       -0.46861213609470
H            4.54386505482818       -5.08552416463071        1.11113934836076
H            5.88879388520558       -3.34244140929987        2.21380412955413
H            5.44211359828312       -0.95983743927652        1.73060992202412
H            4.72995202873257       -0.75996419740307       -2.33095782746890
H            4.51086932639399       -0.38652936051249       -4.76433000450717
H            2.94882794125304        1.32280613573461       -5.60169885716166
H            1.60745754206027        2.64496221151516       -4.01560425510999
H            1.83361094883083        2.24596692495120       -1.58735602516740
H            2.87983911501870       -1.05534870878089        2.94357713518796
H            2.54982540924541       -1.13458661000467        5.22223113435134
H            2.53268817556020        0.37334297635431        6.84294759497632
H            2.77291424214655        2.57293193431265        7.06083701660521
H            4.26507061731749        9.26098135042464        6.52220628605266
H            3.65475063739589        5.76432838042494        3.44293984950782
H            4.08204768077652        6.81927984186998        1.27766453532060
H            4.23259239328933        5.44918221284170       -0.77192151656570
H            3.95383589131663        3.02900877796280       -0.66830658364906
