59
 energy: -12.607660375803 gnorm: 0.000589525639 xtb: 6.5.0 (97a52f5)
F            1.40364843984954        1.13567323582766        0.64714444479886
Si           2.91212033543579        0.68595812494975        0.30870368775400
C            3.98860091737551        2.12289123939100        0.76831180783072
C            5.31062244776087        1.93895123896372        1.10997327453173
C            6.10218452707489        3.02823926215766        1.41388487194725
C            5.56562391049800        4.29999484652935        1.37837487839260
C            4.23857288542365        4.48199382380723        1.04321577971888
C            3.45009087335892        3.38915384755743        0.73987429174541
C            3.42251709126352       -0.76297625897791        1.37254329975274
C            4.46798085004410       -1.58639642570113        0.93677559488437
C            5.22604146057571       -1.32412599373915       -0.24094216157771
C            6.22460854066509       -2.14920077725696       -0.64115672755263
C            6.54669014430265       -3.29732832870225        0.10455554296987
C            5.86587442454275       -3.58764560722642        1.24055903837805
C            4.81588604858298       -2.74427796206292        1.69864067958854
C            4.13025108787060       -3.02161798003847        2.87572328173858
C            3.11701511138446       -2.18701055609239        3.33375225760779
C            2.43915926843086       -2.45426457466608        4.55552165525591
C            1.46601113580543       -1.62518046147876        5.00684947536431
C            1.10767581705508       -0.48311587551033        4.26817765462153
C            1.72602690046080       -0.19834872120423        3.09523212107994
C            2.75447736790011       -1.03279955488714        2.57172328835974
C            2.86794762236940        0.18899874289200       -1.49491122530129
C            2.07470309713169       -0.93299275041694       -1.75650573711876
C            1.19635621247662       -1.49933031100854       -0.78685369853612
C            0.47011341626898       -2.61279709529674       -1.05392523890811
C            0.55881813756232       -3.23866323360139       -2.31097891672444
C            1.36598684444222       -2.73107496686041       -3.27550749928313
C            2.14379535574422       -1.56419529261597       -3.03681530218351
C            2.97559663603660       -1.03266475413114       -4.01585149760276
C            3.73978122334542        0.10427284029951       -3.77492610722432
C            4.59001742250592        0.64557376760454       -4.77863648360020
C            5.34004772811043        1.74825622960891       -4.53450410882965
C            5.28641374992001        2.37935230885614       -3.27875663619979
C            4.48859419566745        1.89308460084782       -2.29644408701557
C            3.68395835753117        0.73581061766398       -2.49334607575392
H            5.71736711764860        0.94276902790178        1.13349826689431
H            7.13728195669515        2.88551100276757        1.67798934981392
H            6.18234160545511        5.15162667922755        1.61491300890040
H            3.81787472702534        5.47397422915735        1.01942032904197
H            2.41214877051454        3.51337649927475        0.47918188632288
H            4.99863116242788       -0.45083241556008       -0.82194608315502
H            6.77868436699814       -1.92804459655603       -1.53877725597215
H            7.34087805711694       -3.94420347976354       -0.23047327215599
H            6.11428731176531       -4.46435352882001        1.81354345979440
H            4.39812857324484       -3.88994222724106        3.45000122960486
H            2.71639470238608       -3.32618162058933        5.12255149887207
H            0.96310442920306       -1.83709556286755        5.93615373213463
H            0.33205097907363        0.16610516727773        4.64040253979861
H            1.43908126034106        0.67655235788572        2.54464567825374
H            1.10747212234959       -1.01972697103404        0.17076881929736
H           -0.18395298245610       -3.02298197477197       -0.30193805518817
H           -0.02302531360767       -4.12483690467586       -2.50490612546529
H            1.43095351916326       -3.20907293358433       -4.23771730780545
H            3.02829854339499       -1.50921536174509       -4.97793541648596
H            4.63002708705711        0.16290652267093       -5.73990873515960
H            5.98055379608505        2.14776193236288       -5.30365545487405
H            5.88632616268594        3.25684431470416       -3.10051572073966
H            4.45535246051114        2.39315259842600       -1.34946179465152
