47
 energy: -9.836558611757 gnorm: 0.000409937523 xtb: 6.5.0 (97a52f5)
F            1.11200215658155        0.62178991346970        0.15870416563513
Si           2.70802220212497        0.47879255655443       -0.00459982367217
C            3.37202906601629        2.20897706509879       -0.07202498661066
C            4.53161683967220        2.54123188282493        0.59396222609944
C            5.03427833408977        3.82405131607764        0.50606759488751
C            4.37077644251468        4.77255454200343       -0.24662974734201
C            3.20557666061527        4.43926251750893       -0.90838665416128
C            2.70620584967891        3.15441898465316       -0.81857298789051
C            3.35073430424008       -0.32648809326578        1.52965335442353
C            4.51102504580648       -1.06738691837114        1.48357443307509
C            5.00126358809612       -1.65047926255525        2.63517360617896
C            4.32700792292393       -1.48810574374947        3.82934920478369
C            3.16449521217554       -0.74388396329896        3.87235462388524
C            2.67717267842016       -0.16206637235903        2.71811822998719
C            3.07536777131098       -0.64978780707974       -1.45287257706126
C            2.38445105153405       -1.86703922033368       -1.45126874316736
C            1.38149471041301       -2.18786264413296       -0.49027813351511
C            0.74503090589142       -3.38539227015102       -0.49989095869742
C            1.05610497645498       -4.35257796471030       -1.47276524191040
C            1.99740174101693       -4.09789921704212       -2.41482119467748
C            2.69090824972724       -2.85598100595877       -2.43712468730727
C            3.66531362271455       -2.59081116871987       -3.39189095077442
C            4.35313667367113       -1.38267677346716       -3.40366403453297
C            5.35509052891854       -1.11926649902120       -4.37854702155962
C            6.03300628485237        0.05452330705270       -4.38016729311064
C            5.75325952892307        1.03524553451879       -3.41209864141435
C            4.80449530763017        0.82103551789462       -2.46751735809147
C            4.05901091963211       -0.39075986815077       -2.41627116913471
H            5.03991786233280        1.79182373561811        1.17661393538512
H            5.94242483382611        4.08423188513777        1.02481884754660
H            4.76121772527182        5.77477641841354       -0.31536368662141
H            2.68605394886409        5.18002784627709       -1.49387320074346
H            1.79786872460662        2.87883904367742       -1.32817734511208
H            5.02430986702129       -1.18660320089856        0.54417716630774
H            5.90803846145087       -2.23189850532787        2.60150229026189
H            4.70804617302515       -1.94318917072690        4.72891682322704
H            2.63771292531397       -0.61770447266985        4.80399497375003
H            1.77086193443928        0.42006571892908        2.73298617684833
H            1.12319075358935       -1.45437945527162        0.25041331198893
H           -0.00922326656017       -3.60111560133715        0.23910709205232
H            0.53914899035242       -5.29818477681295       -1.46638371849415
H            2.23474771106581       -4.83777920145084       -3.15971492192847
H            3.89575539444560       -3.33638040424909       -4.13123318342125
H            5.56924728188519       -1.87145459032280       -5.11815037803496
H            6.79031673916281        0.24111299540299       -5.12388171566432
H            6.29843467782474        1.96486557004286       -3.42662801283006
H            4.60638068647376        1.58214782027851       -1.74070968887633
