41
 energy: -8.456186473553 gnorm: 0.000520661204 xtb: 6.5.0 (97a52f5)
F            0.95934055418904       -0.13707607000118        0.22669189904379
Si           2.55956497026383       -0.04100426995864        0.06481075733380
C            3.31525074659657        0.13294844976079        1.74489699615108
C            3.12517136661648       -0.86671593140486        2.67200233508522
C            3.69903179782795       -0.76370938404280        3.92436727961374
C            4.46025469911178        0.34335544195545        4.24383588106985
C            4.64750722116552        1.34625477036442        3.31340524624536
C            4.07316323418078        1.23868135519958        2.06246644547561
C            3.17229446203270       -1.59461061896874       -0.73161394901670
C            2.32960081049842       -2.31107424363517       -1.55040032781906
C            2.78756098428176       -3.45063708701256       -2.18301580566896
C            4.09067532538190       -3.86611260522778       -1.99304678329070
C            4.93485599410845       -3.14486736602888       -1.17191787174266
C            4.47271108506833       -2.00718072172907       -0.54038936286603
C            2.99070087722170        1.42838238646571       -0.98134447277790
C            3.98130090369408        1.28403321137376       -1.90174529244182
C            4.43852836737801        2.38318743133142       -2.64085324681616
C            3.89905422166739        3.61695259954250       -2.44000889234720
C            2.86778825792730        3.80687853038630       -1.49155615949173
C            2.29162234089027        5.07599690976081       -1.25470660532153
C            1.29685185501753        5.22740725545566       -0.33718481654437
C            0.82356527476976        4.12447939877771        0.38473854951019
C            1.35612023202755        2.88850803765244        0.18120251833033
C            2.39723667422549        2.69211267369049       -0.75510193940963
H            2.52852605331005       -1.72430687596134        2.40874466247236
H            3.55272472413552       -1.54687538294631        4.65007552741438
H            4.90843547844283        0.42515799704263        5.22055773086562
H            5.23934290154809        2.21183283389595        3.56259088783349
H            4.20698305882102        2.01596260769191        1.32965459437715
H            1.31662061935031       -1.97181919256758       -1.68888089967003
H            2.12814007016379       -4.01380513029130       -2.82291304146552
H            4.44982610160329       -4.75467519763075       -2.48598599682920
H            5.95187584231671       -3.46894580111579       -1.02313434245780
H            5.12033808997757       -1.43452406173060        0.10224497446666
H            4.42177177059433        0.31330141748174       -2.05331291946429
H            5.22435489570792        2.24798235941784       -3.36569080610507
H            4.25263845008066        4.46377714244349       -3.00238669665685
H            2.65255634697027        5.92381067233290       -1.81102294449272
H            0.86651040805412        6.20039612474190       -0.16521008247544
H            0.03016515111838        4.25794113946901        1.10180772218790
H            0.98146778168181        2.03749919402685        0.72144924770095
