63
 energy: -11.784513756299 gnorm: 0.000763825695 xtb: 6.5.0 (97a52f5)
C            1.08124843314204       -0.28737208646868        0.03272441381781
C            2.61282276231516       -0.17707855432799       -0.08585343038597
C            3.23136604531365       -0.00090803470056        1.31356755594080
C            3.14907128914814       -1.48869079062913       -0.69262026205525
C            2.96937642660042        1.03825141070079       -0.95477425571049
C            3.68921094516279        0.92376843221552       -2.12921966002311
C            4.00942677842156        2.02739072292273       -2.90499855142800
C            3.59159506742841        3.30457031010685       -2.49255808763110
C            2.86134297285262        3.44385592541191       -1.29800381569765
C            2.42061212553204        4.84532720336358       -0.86035129515454
C            3.66595693743922        5.73171944691384       -0.68294969737251
C            1.50533075040680        5.44420542114974       -1.94235185611858
C            1.64849628295429        4.81934210416085        0.47312669147138
C            2.56766855792752        2.31058507340867       -0.56220478902355
O            3.89216509668370        4.40673002874390       -3.24466013036964
B            4.63549706399999        4.36074939967255       -4.51660017685546
F            3.81656888381824        4.82071862938394       -5.53412046732725
F            5.77303511007607        5.14206241300441       -4.40294115623800
N            5.07676497740039        2.92857722559610       -4.87680933099522
C            4.77530249106390        1.85714903056220       -4.12685021011123
N            5.15736688763439        0.60144366903958       -4.44350775468546
C            5.86565188605664        0.42346800337232       -5.54328501720082
C            6.30943626397460       -0.95447882411186       -5.84312111180666
C            5.41583974846941       -2.01518332264634       -5.70267591732438
C            5.81204597632179       -3.30941966934371       -5.95326558288838
C            7.11157301364931       -3.57310854684684       -6.33782046467002
C            8.01681703689735       -2.53798018347677       -6.46175824441698
C            7.62453336183905       -1.24258409229214       -6.21144030049400
C            6.18742052981216        1.50272564668245       -6.42166239681068
C            6.84717238613574        1.33300076642043       -7.65005234633477
C            7.12340830521578        2.40861921016452       -8.45437346956688
Cl           7.92851634735214        2.16048475281605       -9.95731635047611
C            6.74632042129581        3.69869625759155       -8.06087671490105
C            6.08808247101150        3.88502835622994       -6.88358061839972
C            5.78260285488863        2.79634748903557       -6.04531458723776
H            0.79793939084713       -1.15644819914593        0.62509226307555
H            0.62583972090511       -0.38682124861234       -0.95173232783819
H            0.65621282976477        0.59354231929734        0.51074790071877
H            3.01733578910343       -0.86194796417490        1.94537307554881
H            2.83805956462884        0.88325113939977        1.81233356709147
H            4.31307889256923        0.10676905651082        1.24457289900600
H            2.88983443743618       -2.33959734530781       -0.06395476920517
H            4.23439552657032       -1.46450478388544       -0.78186669024732
H            2.72309674672985       -1.66684929280123       -1.67912973314294
H            4.02222892976402       -0.03756704354522       -2.47116367769481
H            4.22559160021677        5.80362487366317       -1.61419450185237
H            4.32935661400031        5.31643188041918        0.07446055092209
H            3.38952969619121        6.73983201096622       -0.37727630661430
H            2.02453728361134        5.50462233262142       -2.89763797831221
H            1.18120430431393        6.44772900093010       -1.67025355549804
H            0.61900099214263        4.82678831008720       -2.08192083359831
H            2.26402270994721        4.41327323432759        1.27472645460242
H            0.74328700615395        4.21923206180846        0.39124597275379
H            1.35009352014264        5.82535310596792        0.76544402481886
H            2.00925983472972        2.40669837190038        0.34927785452991
H            4.40618068321621       -1.80347732669685       -5.39596984388541
H            5.10781318992769       -4.11818188562845       -5.84647596429898
H            7.42127072700930       -4.58664518074199       -6.53285712119514
H            9.03468866802484       -2.74583587979729       -6.74857277642181
H            8.34040429377949       -0.44104078473673       -6.27151286694106
H            7.12290404764684        0.35212548530724       -7.98972729601758
H            6.97822252336652        4.52899446500765       -8.70573788011439
H            5.78332398901962        4.86926646303316       -6.57655105170828
