87
 energy: -19.570937872818 gnorm: 0.000491914192 xtb: 6.5.0 (97a52f5)
F           -2.95388669388042       -1.47354253797295        0.71357202661792
C           -1.78608921700506       -0.81327814290517        0.87837259122714
C           -0.56936459540660       -1.49429435484655        0.79220278945314
C           -0.56007032583657       -2.92874557761643        0.50241102743611
N            0.27196288316588       -3.80981596274258        1.06865400564436
N            0.03079149413075       -4.98302748231128        0.56950118057924
C           -0.95749002489331       -4.86066467228461       -0.31853310232156
C           -1.50489183607450       -5.95585687702405       -1.10996978216812
C           -0.99320265308145       -7.24474315478529       -1.00036492400937
C           -1.51160283038765       -8.26842525198964       -1.76112821259894
C           -2.54672426615647       -8.02048198995394       -2.64146191260369
C           -3.06317269914969       -6.74485957522736       -2.75955648489914
C           -2.54628715748312       -5.71923933247607       -2.00018388055664
O           -1.37051850401852       -3.56516920201503       -0.38443280366080
C            0.63465977174204       -0.79328230322834        0.98303031674084
N            1.90339979140291       -1.43498010374659        0.81233092655274
C            2.34851108320588       -2.10340377294707       -0.34629820977405
C            1.71940738164579       -2.32813241640984       -1.57003570437828
C            2.39239093448390       -3.02839706513666       -2.53951826713610
C            3.68689664526916       -3.50559699804231       -2.31545572329258
C            4.32391348076508       -3.28658382921743       -1.11831115541845
C            3.65106890934238       -2.57799774037248       -0.12170935601305
C            4.02624106368429       -2.18306141077184        1.21385256022603
C            5.18754648430130       -2.38047109810205        1.96254735652699
C            5.24383129446222       -1.87169582541651        3.23729332468639
C            4.16379658386145       -1.16978241129959        3.78038166598215
C            3.01493310746222       -0.96892447367385        3.05683111555867
C            2.94208631422172       -1.47686447749758        1.76079773472162
C            0.60682686937504        0.56548829948015        1.28826999496786
F            1.76607251587489        1.23737871658889        1.46909982065801
C           -0.60688922055045        1.23816455300746        1.39541254855495
N           -0.60617266978782        2.63308389526938        1.71774435621131
C            0.02771027083513        3.64347015087274        0.96849551764210
C            0.83849138568638        3.56707216613771       -0.16311778477890
C            1.28893074609946        4.73179393769973       -0.73245818006068
C            0.94410297905645        5.97583686381787       -0.19623217830223
C            0.14513133741206        6.06921344902914        0.91722284389310
C           -0.31948123115080        4.89318086133307        1.50802854335940
C           -1.17103598241938        4.64705374778312        2.64552828527709
C           -1.81026909229723        5.50177412938952        3.54486181329929
C           -2.57619443621839        4.95294523911886        4.54432240565415
C           -2.71257218147698        3.56747871681673        4.66760804255998
C           -2.08926484836366        2.71556381930745        3.79097640653943
C           -1.31925196587717        3.25513832505909        2.76231614180185
C           -1.80919690605967        0.54745923403648        1.17100729852621
N           -3.06893828494533        1.22515979096422        1.25061051904008
C           -3.44125177025205        2.38460084159240        0.54276711520030
C           -2.78119723061030        3.09681219232396       -0.45723338567049
C           -3.36757236471608        4.23184335414316       -0.95753972429144
C           -4.60795318016999        4.66967759492660       -0.48468938652250
C           -5.27769499965391        3.97408241860774        0.49205234865208
C           -4.69274007915110        2.81789383809677        1.01106183395823
C           -5.11655114269315        1.88500534965395        2.02540455890377
C           -6.24940566995339        1.82974666315485        2.83897803220234
C           -6.35681494155799        0.80749003821218        3.74998982462737
C           -5.35599036189673       -0.16177205204170        3.86555177117887
C           -4.23670865553122       -0.12076158736238        3.07268194355255
C           -4.11202154891596        0.90960157060412        2.14144865702596
H           -0.18490815997706       -7.42772285344087       -0.31424381821864
H           -1.10855829929436       -9.26369555930931       -1.67017045317343
H           -2.95122056280773       -8.82222392604271       -3.23709705125845
H           -3.86977091790614       -6.55168957203670       -3.44756518397776
H           -2.93847441738502       -4.72029245831083       -2.08550727856768
H            0.71953002679972       -1.96629149899884       -1.73022047106420
H            1.91447681441578       -3.21738849893726       -3.48667409331344
H            4.19180099283313       -4.05272963934171       -3.09441001304858
H            5.32061602795327       -3.64902992675285       -0.93910582311972
H            6.01425771137596       -2.92195534721179        1.53796504506228
H            6.13350563579606       -2.01449322927141        3.82814315889256
H            4.23587883737102       -0.77955770926834        4.78225741287136
H            2.18207198337869       -0.42127398883905        3.46067278503175
H            1.10659484564796        2.60453526617557       -0.56080794116225
H            1.91881450136753        4.68751188540376       -1.60555536895276
H            1.31074520184620        6.87428417206165       -0.66461465472151
H           -0.12780129774191        7.02274796633101        1.33317176826400
H           -1.69948985100432        6.56682204617282        3.44409167079523
H           -3.07885790099084        5.59896895810825        5.24498132928199
H           -3.31887409571427        3.16302656673109        5.46110530593788
H           -2.19279593714162        1.64890047432933        3.87393146744252
H           -1.82414014103320        2.75643983491266       -0.80879200194502
H           -2.86342955532936        4.79659441014235       -1.72429363050460
H           -5.04446936820848        5.56564925463631       -0.89396167873656
H           -6.23265632530470        4.30412934360505        0.86081207883627
H           -7.01286790899096        2.58184155852870        2.74752668950519
H           -7.22422647904316        0.75137093529083        4.38664340639664
H           -5.46673796705984       -0.95363930325500        4.58796508212042
H           -3.46564715368256       -0.86671723903893        3.14685317466446
