67
 energy: -14.929737808107 gnorm: 0.000760561664 xtb: 6.5.0 (97a52f5)
F           -2.52915803619492        0.73228891039279       -0.41691710174749
C           -1.20419704119500        0.51174791398665       -0.32285943512016
C           -0.76789953511518       -0.79141823588235       -0.15037705263098
F           -1.68031380917062       -1.77531513107050       -0.03204448701421
C            0.59727654854741       -1.08022562946834       -0.08593796356378
N            1.04390057918513       -2.42845257220664        0.06079139688128
C            2.00443635735286       -2.88843718533755        0.98315568009313
C            2.72693984798503       -2.21480504161782        1.96719495699936
C            3.60105970954475       -2.92598918097300        2.75030870870910
C            3.76912988603958       -4.30196291921684        2.57493037015655
C            3.06384185696027       -4.98251579939464        1.61303707599005
C            2.17127514726048       -4.27193302966056        0.80926676590970
C            1.29335682550465       -4.67906341144556       -0.25938018873268
C            1.05457332821929       -5.91662742039970       -0.85861697415519
C            0.14408810691714       -5.98715250880501       -1.88422448865851
C           -0.53345475301749       -4.84671591975316       -2.32308594879138
C           -0.30918681808171       -3.62366459901157       -1.74257311601058
C            0.60970066017213       -3.53342929894538       -0.69785407719034
C            1.52165863085689       -0.04239482243799       -0.16906150363960
F            2.84539441431512       -0.30935080142450       -0.14515763563747
C            1.09148102748433        1.27388881800039       -0.31013786362448
N            2.08145267500958        2.31040879154937       -0.32228720792882
C            3.04194213570190        2.51654699219521       -1.32905591916495
C            3.30889178072082        1.79767248989363       -2.49222687697904
C            4.29830844208270        2.24702584059160       -3.33027838582939
C            5.02567993624582        3.40258569616781       -3.03174264824932
C            4.77380246851433        4.12221593882374       -1.88917776412117
C            3.77280348778156        3.67649448267219       -1.02534004311933
C            3.26148128861974        4.19174373950710        0.22120957537059
C            3.59121379440953        5.31271334841932        0.98392191159012
C            2.88810649539594        5.55258953571913        2.13917451632369
C            1.86377494875245        4.69532736888217        2.55013111939157
C            1.52972986747542        3.58768282977630        1.81224723055375
C            2.23259978474221        3.33169787416846        0.63664555021153
C           -0.28169337823349        1.55954062714237       -0.41425685850878
C           -0.73011053698075        2.92370450219520       -0.65499522242497
N           -1.98462840788612        3.36900557961377       -0.53234142858450
N           -2.00499209613456        4.63738690779854       -0.80707851380295
C           -0.76255642616839        5.01274771588370       -1.11034306301507
C           -0.33722215056024        6.36238334627580       -1.45808146585363
C            1.01509529952093        6.63063549401203       -1.63528218327265
C            1.43888870482636        7.89896962689475       -1.95915191402065
C            0.51735638118958        8.91664043840315       -2.10976542212162
C           -0.82893754610973        8.66329632462152       -1.93365340023701
C           -1.25558780129923        7.39541616306094       -1.60924223576059
O            0.07507857501818        3.94742652374924       -1.03824335889586
H            2.60289770673039       -1.15285537586763        2.08407809260170
H            4.16898931550696       -2.41581356721417        3.51072714130456
H            4.46267168586229       -4.83560830767664        3.20362867812582
H            3.18621209506087       -6.04188983742756        1.47347490930496
H            1.58114767443043       -6.78967782827629       -0.51623353116041
H           -0.05193753711584       -6.93511787632908       -2.35745038139029
H           -1.24528238399448       -4.93050218538195       -3.12768925030964
H           -0.83678949783985       -2.74320762302075       -2.06362040402979
H            2.74659455868132        0.90647785802451       -2.70750771091462
H            4.51866325859429        1.70087161621260       -4.23270131024096
H            5.79611434633344        3.73272252546524       -3.70876571453089
H            5.32973257515577        5.01246191311771       -1.65409133874283
H            4.37851829636963        5.97019165625095        0.66052090685482
H            3.12735914237301        6.41623359091393        2.73735289321584
H            1.32601292250033        4.90994090779146        3.45895790607406
H            0.73609691164272        2.92762311195754        2.11363744622983
H            1.72256406318260        5.83061432001170       -1.49874450199121
H            2.48929558850131        8.09850898732194       -2.09201451883973
H            0.84943909408445        9.90998308209944       -2.36302591777517
H           -1.54661769571653        9.45904466343859       -2.04858488791051
H           -2.30210277656709        7.18817805521652       -1.46961161562151
