47
 energy: -10.274104099319 gnorm: 0.000742398143 xtb: 6.5.0 (97a52f5)
F            3.23411786701704        0.76191129600096        0.53574223019634
C            2.02489748086665        0.35393895973358        0.11112823547247
C            1.69728966141364       -0.98366103743470        0.24985320427567
F            2.60314524966046       -1.82592064712744        0.77849455028702
C            0.45733540521758       -1.45672438719333       -0.17871300188980
N            0.12374151540692       -2.83820050376552       -0.04313152560398
C           -0.45909932088290       -3.64986145999074       -1.03643894915820
C           -0.83403673356271       -3.36703212629171       -2.34926790044585
C           -1.37613585272645       -4.36859299001685       -3.11421330301556
C           -1.54983159898648       -5.65459109484908       -2.59761971492432
C           -1.18233000681534       -5.95297108713823       -1.30893511370150
C           -0.63023747451556       -4.94366240565622       -0.51932173886255
C           -0.14553828598866       -4.93085621278157        0.83780959953605
C           -0.08249638566213       -5.91931050125391        1.82051910209015
C            0.43799237625835       -5.59468371749971        3.04871776982647
C            0.89655202896981       -4.30262914744497        3.31537176629035
C            0.83973747349091       -3.32084771923735        2.35878819407612
C            0.31713353937231       -3.63246562499619        1.10432709560335
C           -0.45087813302749       -0.56490445339719       -0.74861301279085
F           -1.66582714955879       -0.98668161120373       -1.14301631362566
C           -0.12402388557483        0.77157872211038       -0.89923280024900
F           -1.03735491915645        1.59084621994125       -1.44959769920065
C            1.11957353120772        1.24682377162891       -0.47177723173081
C            1.46577410469486        2.64810931434770       -0.64851393489590
N            2.52882824664391        3.24796309097232       -0.10770362870204
N            2.53857809270888        4.48930174708257       -0.47361143771892
C            1.48093039492927        4.69717612267624       -1.25461631303270
C            1.13852944158128        5.96644523446715       -1.88462163484406
C            0.02876783749521        6.04777683375788       -2.71689575865616
C           -0.29850799816992        7.23612202855865       -3.32919103497507
C            0.47678551313749        8.35858972881320       -3.11711765706568
C            1.58063677443941        8.29090626093897       -2.29064603848113
C            1.91120453464617        7.10364833034734       -1.67792034618460
O            0.77048545913877        3.54805880773792       -1.38693732182801
H           -0.71304902400924       -2.36967057217839       -2.73400115943417
H           -1.67529437536933       -4.16012514188875       -4.12846349664665
H           -1.97842704867946       -6.42263967871164       -3.22044305214610
H           -1.31131357750285       -6.94158014498711       -0.90507220050180
H           -0.43855003651869       -6.91193757247257        1.60842706332329
H            0.49451586322426       -6.34666653985760        3.81865227933655
H            1.30447825984781       -4.07541970468431        4.28681020095499
H            1.20745599968636       -2.32816052104406        2.55015580318639
H           -0.56592747428628        5.16349613886448       -2.87396255596722
H           -1.15941949395334        7.28966832841509       -3.97541035715634
H            0.22077075267950        9.28833401598835       -3.59850533322823
H            2.18517037908202        9.16793901957089       -2.12620397421189
H            2.77213099210962        7.03998263113039       -1.03523155358490
