80
 energy: -17.137405619283 gnorm: 0.000682408287 xtb: 6.5.0 (97a52f5)
F            2.31414998064193        1.29948927358575        0.13954262944389
C            1.14843716483697        0.64356849814072       -0.01003736502636
C            1.16472787981632       -0.74071049735839        0.03721606279104
F            2.34460882105974       -1.37313491350365        0.18501636245530
C           -0.01934026941312       -1.47103445145963       -0.10035404766493
N            0.00358586103056       -2.89725203108156       -0.06169578660044
C           -0.61486738490939       -3.76335456400866       -0.98869695261483
C           -1.36132936019600       -3.49649937389862       -2.13502475720846
C           -1.82883064755227       -4.54917404078499       -2.88215621689511
C           -1.56379993829302       -5.86881082596628       -2.51056832178826
C           -0.82637130687976       -6.15064394330227       -1.38569473278013
C           -0.34514470778185       -5.09060553923547       -0.61862913474074
C            0.45515472229351       -5.04744669767079        0.58225268216278
C            0.98589171558247       -6.05209044799846        1.39014134605072
C            1.70942715924963       -5.69087097797643        2.50121555177217
C            1.91168372473625       -4.34637235213341        2.81934884778414
C            1.39456555299530       -3.34750930212108        2.03197555601919
C            0.66137085642510       -3.69513503302216        0.89879018430951
C           -1.22458365851660       -0.78933738782465       -0.28791750666552
F           -2.38612959957356       -1.46343371270345       -0.39050910536049
C           -1.24277492995255        0.59313583387314       -0.34286471370190
F           -2.41826192356275        1.22471481816478       -0.53267801423163
C           -0.05899740711191        1.33050724909689       -0.20636106695055
C           -0.14078326048171        2.76615708717549       -0.27808549059634
C            0.89677496527387        3.61453324702599       -0.20724658241770
C            0.81208186493611        5.05857593499733       -0.28662951546344
C           -0.40713569321963        5.73869648736855       -0.35022321082416
C           -0.44849820609027        7.10857163114385       -0.41951825876497
C            0.72451446083638        7.86917058793193       -0.42216634967281
C            0.69080200639612        9.34222888470165       -0.51149010595132
C           -0.25313670259239       10.09240369222173        0.18057643979431
C           -0.47876157816160       11.52062566686616       -0.12962354656432
C           -0.54382356081085       11.97826779476809       -1.44732675743498
C           -0.77282004700264       13.30687308645940       -1.72328278323847
C           -0.94903317963286       14.20818198992156       -0.69281948643714
C           -0.89876562691584       13.77519704676396        0.61689046484271
C           -0.66947685329626       12.44740928361803        0.89701779425085
C           -1.06652695872762        9.49669061333464        1.26276598119518
C           -0.49505740105280        8.66433183962686        2.22758126890355
C           -1.26020374782279        8.12069122075537        3.23389210582054
C           -2.60995356734399        8.40102327907015        3.30603732925349
C           -3.19193298213391        9.23246725517719        2.37036648064008
C           -2.43052865223032        9.77751038733639        1.36183523882613
C            1.70383370052137        9.99443733292089       -1.37201983834461
C            1.99008608193663        9.48551605359369       -2.63968471074336
C            2.93619028903069       10.08140832877269       -3.44216793802836
C            3.62163389996388       11.19343640064867       -2.99618467962401
C            3.36066584184969       11.70636345554867       -1.74151654563116
C            2.41538465106424       11.11347170517144       -0.93586147163532
C            1.94326218509989        7.18695416014857       -0.37331236406231
C            1.98533687106505        5.81738273473216       -0.30215391757549
H           -1.57129038196893       -2.47763594457859       -2.40745564090980
H           -2.41074764383071       -4.35517574304524       -3.76814449911538
H           -1.94247817174289       -6.67642940809084       -3.11502454562690
H           -0.61445540375813       -7.16407665454653       -1.09414192295997
H            0.82246465736826       -7.08523480126838        1.13944208924459
H            2.12614961020491       -6.45494283590454        3.13649649527481
H            2.48391026391759       -4.09000708812870        3.69574278462937
H            1.55479193776209       -2.30966397183806        2.26369484927475
H           -1.12952351914091        3.16519109816609       -0.41445277123867
H            1.88023769867757        3.19986959346323       -0.08815816583360
H           -1.32826514473767        5.18474507988669       -0.33936069864805
H           -1.39555672936369        7.61616585059625       -0.47625101942524
H           -0.41549260491216       11.27412250118478       -2.25070095300418
H           -0.81561574890074       13.64402292796627       -2.74585959738569
H           -1.12857042861203       15.24819873963964       -0.91054489518914
H           -1.03967140486214       14.47813351700039        1.42140013497483
H           -0.62900658874007       12.10876982447514        1.91776366416874
H            0.55841841841023        8.45153357372170        2.17404607596852
H           -0.80515197635739        7.47422915870275        3.96611375567973
H           -3.20834197253077        7.97299877271847        4.09340435507132
H           -4.24469427070557        9.45471678803385        2.42945850121829
H           -2.88296730699261       10.42457005162641        0.63048404551039
H            1.45289710555571        8.61965791932646       -2.98615720470365
H            3.14202680428420        9.67928475727535       -4.42050178325951
H            4.36140142603520       11.65924835303916       -3.62627371049375
H            3.89784919463052       12.57275442442237       -1.39222960719803
H            2.21460859254337       11.50905263092383        0.04450028901991
H            2.85678408527381        7.75587101857416       -0.38415361107724
H            2.93453839711041        5.31147309805571       -0.26054746504368
