24
 energy: -3.821696046809 gnorm: 0.000407180873 xtb: 6.5.0 (97a52f5)
F            1.06311968646115       -0.07568652608687       -0.45292412355721
C            2.39016144615460       -0.05025498299834       -0.22372038353747
C            3.09671845997789       -1.26319618661220       -0.09919945518237
C            4.43511492481321       -1.27549662001184        0.14261924452535
F            5.10169830303444       -2.43743229646657        0.25822638778842
C            5.14430683377874       -0.04789057409908        0.27388640640844
C            6.50666558156517       -0.02950025395820        0.52280909428305
C            7.18778988673829        1.17138758315463        0.64737747446079
C            8.57990905891611        1.21383302884198        0.90337751609478
C            9.21792234266212        2.40049354826682        1.01882661052988
C            8.50140848837437        3.60149338763216        0.88343972175900
C            7.17521228975557        3.57390941047658        0.63814097262660
N            6.48435334935617        2.36963681934959        0.51568733890321
C            5.14445935268612        2.36498238990245        0.27241013813497
C            4.43829439794214        1.17972617073951        0.14542899338751
C            3.04221278091027        1.13841328159630       -0.10688332172189
H            2.56498247502548       -2.19416644978066       -0.19749023772549
H            7.02879696539671       -0.96703854802749        0.61732252856848
H            9.12697622290352        0.29016924807672        1.00567105508774
H           10.27976310677370        2.43009562091727        1.21547313768298
H            9.01793004330309        4.54561362367994        0.97680291275627
H            6.61922724105150        4.49203589452589        0.53282001316327
H            4.63259273849833        3.30728083975123        0.17959869649903
H            2.47997402392134        2.05064159113016       -0.20684072093539
