33
 energy: -5.944474043377 gnorm: 0.000189214444 xtb: 6.5.0 (97a52f5)
F            2.15458733878174       -0.02026049880833       -0.00258952781911
C            0.80723929166254       -0.01171759353054       -0.00213856039391
C            0.10148537944079       -1.18517979238812       -0.20220808187337
C           -1.27170111888086       -1.17989101967339       -0.20395062131131
C           -1.98275045523094        0.00603672048154       -0.00156172736587
C           -3.47125638341708        0.01532099710986       -0.00144379011098
C           -4.15359343260281       -0.59088576646325        1.08792394134586
C           -3.44341615816820       -1.17802610222398        2.17063920911908
C           -4.09352001320554       -1.76140949703185        3.21417391377602
C           -5.49470865969031       -1.79709972783166        3.25433296464750
C           -6.21622149578930       -1.23690516308186        2.24443528731007
C           -5.55410714047812       -0.63556372630923        1.17329530128984
S           -6.48010248425570        0.03133200263156       -0.00254650048814
C           -5.54617135559686        0.68867467489233       -1.17749984408835
C           -6.20110041662199        1.29704723357885       -2.24908262085960
C           -5.47295780018021        1.85004459044585       -3.25818841961394
C           -4.07223927576384        1.80002123245947       -3.21672413113116
C           -3.42911591911335        1.20957232870234       -2.17283291071748
C           -4.14627293642112        0.62934352475949       -1.09099371388769
C           -1.25661168965796        1.18281033655476        0.20065987686561
C            0.11653980565075        1.17060340368513        0.19834185448752
H            0.65234261565165       -2.09719895939555       -0.35732014497780
H           -1.81718397674022       -2.09330052047652       -0.37169056644407
H           -2.36794658416270       -1.15015110240981        2.16412063552842
H           -3.52939713640594       -2.20039109381318        4.02157301849035
H           -5.99770045038327       -2.26430489212833        4.08620428093902
H           -7.29579539324306       -1.24052615046517        2.24541442465168
H           -7.28057772953860        1.31185642543248       -2.25096485509077
H           -5.97038807092726        2.32264196177190       -4.09036804824302
H           -3.50289594665482        2.23355947791087       -4.02340224703455
H           -2.35399349616914        1.17093068208189       -2.16520239542113
H           -1.79034863585844        2.10305712023680        0.36878770491203
H            0.67905972396895        2.07548889329574        0.35336629350859
