39
 energy: -8.557494457544 gnorm: 0.000453152473 xtb: 6.5.0 (97a52f5)
F            2.42731412822977       -0.09317069702199        0.20473731088387
C            1.07273037409544       -0.03048758935256        0.15431525978286
C            0.31338615871726       -1.18756225197625        0.21642553488542
C           -1.05857608150721       -1.12822747078245        0.16494141554615
C           -1.71981175761375        0.09869286569367        0.04669996299064
C           -3.20040964151223        0.16841309234098       -0.00453840242490
C           -3.87494378810845        0.68416019043943       -1.12804700275462
C           -3.17938193233224        1.12896142646304       -2.27890911770875
C           -3.84359282172730        1.61884113673540       -3.35944857336365
C           -5.24215429729816        1.68879242518447       -3.35396161763570
C           -5.94689780682827        1.26093736551714       -2.27180043118572
C           -5.30009010754489        0.73949784303617       -1.12542153825265
N           -6.05704209927573        0.31751058500954       -0.10062223363606
C           -5.42252817476658       -0.18232233595059        0.98553494372249
C           -6.19282980040238       -0.61433037684687        2.06543232161965
C           -5.62030167367366       -1.11757960213515        3.23059529971183
C           -6.40443719311798       -1.55059857566744        4.33280206487631
C           -5.81363537097819       -2.02515768925898        5.45962201926574
C           -4.41139299451796       -2.09754733959172        5.55801478830525
C           -3.62422608870396       -1.69603093372985        4.52699746023316
C           -4.20000045916929       -1.19445560022666        3.32943861339221
C           -3.42364140621932       -0.77343359448773        2.25471240369001
C           -3.99519386755055       -0.27657335072454        1.08249433837653
C           -0.94114915998099        1.25900638190568       -0.01554052759758
C            0.43031638720182        1.19142756802844        0.03857276985758
H            0.82034288882729       -2.13220439855943        0.30337810444638
H           -1.64194981753512       -2.03201110863884        0.20282494374533
H           -2.10596463903960        1.06620030538809       -2.29402580670063
H           -3.29566089823197        1.95298153307238       -4.22511879655057
H           -5.75955388559404        2.08055286750777       -4.21419136788884
H           -7.02158682382959        1.30939700992348       -2.26812751564314
H           -7.26213536199421       -0.54614719838174        1.99009884805532
H           -7.47686151535571       -1.49581697874864        4.26181250448020
H           -6.42034034881503       -2.34936538902387        6.28909460402835
H           -3.96268605182786       -2.47458326194891        6.46224558888460
H           -2.55241276228776       -1.75236342689896        4.60530269626248
H           -2.35434007134385       -0.82460193998455        2.33816103505877
H           -1.43416077889689        2.21268079108841       -0.09292105934255
H            1.02731954050853        2.08511772260306       -0.00400084141557
