50
 energy: -10.306767575909 gnorm: 0.000178126281 xtb: 6.5.0 (97a52f5)
F            2.21298846649202        0.04604475946833        0.03022411450290
C            0.85529558735043        0.03733691945554        0.02184951895008
C            0.15889618477866       -1.12371501569863        0.31022621974206
C           -1.21729912440945       -1.13452438181784        0.30439507255091
C           -1.93845687237209        0.01959701341151        0.00527856133422
C           -3.41892904443417        0.01037728441523       -0.00313480723910
C           -4.13462001114489       -0.58067373103555        1.03448030398075
C           -5.51548374843473       -0.59227151389759        1.04421400365216
C           -6.21669679056658       -0.00555937000011       -0.01819983749670
C           -5.51080851236314        0.58885589236878       -1.07322013090085
C           -4.13008322284332        0.59302990099469       -1.04858167411785
C           -6.25759421447582        1.22783383327501       -2.21142050445037
C           -7.62964021401631        0.57319922062218       -2.47209328505054
C           -8.38407650488619        0.27095458083665       -1.20677700293048
C           -9.76493587154911        0.25616391184686       -1.19835467773931
C          -10.48309408933735       -0.02572377140199       -0.03938610857548
C          -11.96350056007388       -0.03195150028469       -0.04651935149068
C          -12.67177791745655       -0.66509848507235       -1.06588575891235
C          -14.04802375629597       -0.67075711201803       -1.06952848688417
C          -14.75750999402380       -0.04341850134327       -0.06000149095319
F          -16.11517358378164       -0.04892936934917       -0.06657730029830
C          -14.06298726447458        0.58965412472930        0.95632225806725
C          -12.68677502340074        0.59531444485522        0.96593381853041
C           -9.77383887410749       -0.30138130587105        1.12654263689390
C           -8.39305079896678       -0.30368863727382        1.14857258809011
C           -7.68500850228540       -0.01309568185901       -0.02562985299824
C           -7.64849870828619       -0.59907195477983        2.42136364359285
C           -6.26721621059687       -1.23947257947656        2.17447474809671
C           -1.22850615450221        1.18277334100631       -0.28546803792638
C            0.14768309534731        1.18945210804080       -0.27494776177525
H            0.71531943449711       -2.01598847885355        0.53606370445431
H           -1.75110838144854       -2.04397892934696        0.51954904373928
H           -3.59792027058503       -1.02938779273792        1.85080501444371
H           -3.58975093834206        1.04801607000534       -1.85902040896732
H           -5.63867084399987        1.18929429329381       -3.11623179340457
H           -6.39102190564594        2.29245823935069       -1.98762272146201
H           -7.49480658784985       -0.36076012656293       -3.02965237972971
H           -8.24366696640421        1.21688063910813       -3.11386043992866
H          -10.29955942126120        0.47665954464791       -2.10461260769524
H          -12.12795538998909       -1.16478120944246       -1.84875281704194
H          -14.59433008202937       -1.16384602596475       -1.85386024785031
H          -14.62085232953623        1.07817763588998        1.73535939639689
H          -12.15465477610234        1.09943725303134        1.75397536430146
H          -10.31535099145744       -0.52671756454579        2.02750591674834
H           -8.26241074618672       -1.24945533449345        3.05644247061490
H           -7.52898020407384        0.33582916398803        2.98082717824945
H           -6.38739265640476       -2.30531790911963        1.94899093541361
H           -5.65796818812718       -1.19501545359970        3.08556092710086
H           -1.77121366115937        2.08541939050930       -0.50696270287009
H            0.69535714122230        2.08875217069579       -0.49420525075481
