46
 energy: -10.098179921792 gnorm: 0.000189549959 xtb: 6.5.0 (97a52f5)
F            2.17761558949812        0.01754928549947       -0.10917843125997
C            0.82094696968473        0.01416764446048       -0.07235966667850
C            0.12786396439455       -1.16390511865629        0.14540221042939
C           -1.24787053987618       -1.16993362023709        0.18208438290689
C           -1.97052500884259        0.00640045790697       -0.00148371067832
C           -3.45152855303773        0.00216105472605        0.03613265249388
C           -4.12932970106021       -0.62062991586705        1.08103062747013
C           -5.51987032507767       -0.63677038783093        1.13966864586957
C           -6.23412636717942       -1.26497671040220        2.21034003794066
C           -7.58398713282232       -1.26647159003760        2.24567314224301
C           -8.35470658726757       -0.64218946010279        1.21252373411203
C           -9.74649648320010       -0.63258003175621        1.22474523901770
C          -10.47978755286853       -0.02821138105274        0.20680662669312
C          -11.96077992978477       -0.03483434344322        0.24174290995387
C          -12.65031591181452        0.33238895978533        1.39475575263010
C          -14.02625229402695        0.32893246287552        1.42345254287544
C          -14.75262036343750       -0.04314104063878        0.30561047636935
F          -16.10945861568743       -0.04484612912385        0.33593191172135
C          -14.07595403775650       -0.41179358689324       -0.84407978123355
C          -12.70016563385267       -0.40691587054157       -0.87836550936397
C           -9.80180434526828        0.58305115191431       -0.84477214903788
C           -8.41124674103969        0.60602655016797       -0.89918857203090
C           -7.69707917587308        1.23750206685584       -1.96796214469478
C           -6.34716012315313        1.24795726716910       -1.99798500773465
C           -5.57649030771383        0.62585019270383       -0.96352500918258
C           -4.18472421732871        0.62023382888984       -0.97352001663134
C           -6.25429130729175       -0.00841803150314        0.10529882055059
C           -7.67684265374723       -0.01477241912344        0.13971155520987
C           -1.26468524361995        1.18672740806595       -0.22129462313142
C            0.11116846590997        1.18841353041523       -0.25402948859138
H            0.68630852278573       -2.07285655213934        0.28219378206660
H           -1.78048318269287       -2.09134525686936        0.34242496008678
H           -3.56469986725894       -1.09027012384290        1.86562490256312
H           -5.67088860960053       -1.73948586060938        2.99483697803248
H           -8.10440522317601       -1.74242645771688        3.05835841580634
H          -10.26806070299423       -1.11251963396867        2.03255322256054
H          -12.09233288217182        0.63238743008166        2.26481574035284
H          -14.55921510447816        0.61767170197442        2.31190481245036
H          -14.64719210724870       -0.70305164546210       -1.70758415429779
H          -12.18073093790669       -0.70340585116630       -1.77314563121943
H          -10.36602605839038        1.05782185946999       -1.62656722706756
H           -8.26039201899233        1.70873011671827       -2.75437936532915
H           -5.82668613132491        1.72764595169428       -2.80843538493211
H           -3.66304814402484        1.09405676706250       -1.78487243019067
H           -1.80981595832309        2.10515687830193       -0.35434567608025
H            0.65692256893893        2.10041845224652       -0.41884010304008
