35
 energy: -7.623101120266 gnorm: 0.000467718561 xtb: 6.5.0 (97a52f5)
F            2.19920665055942       -0.16777938260285       -0.28547385922616
C            0.84508182492115       -0.10324962148453       -0.21277893203118
C            0.08589204601163       -1.26111467175642       -0.22487969288054
C           -1.28573933797909       -1.19763478230960       -0.15135772466884
C           -1.93914816653163        0.03054798969989       -0.05766982350695
C           -3.40836069782651        0.09032325176190        0.02895643514677
C           -4.13566430811118        0.80470998523846       -0.88941713081550
C           -5.53738051766503        0.78576342208919       -0.89422576771575
C           -6.22555170104623        0.04108676966261        0.01347655361034
C           -5.50561932936923       -0.68462024539850        0.97892267764779
N           -6.00045786247466       -1.47020298408620        1.94971035816905
C           -4.95215343186950       -1.90678342385913        2.63294942707681
C           -3.75632493918236       -1.39622517961904        2.12304615703381
C           -2.42120953449104       -1.59014837252418        2.70227715130648
C           -1.97557802035158       -2.86085526325724        3.06788559321987
C           -0.72380842369543       -3.03551483843701        3.61332798834001
C            0.10399208760466       -1.94845529779827        3.81292630347974
C           -0.32585664385590       -0.68204844674025        3.47042765503946
C           -1.57632444102336       -0.50269909871931        2.92468049333204
N           -4.10546406791020       -0.62877381805555        1.01787056407016
C           -1.16711548373487        1.19205100533856       -0.05932345508911
C            0.20468214935363        1.12193491671937       -0.13101056155043
H            0.59063535046169       -2.20852415085776       -0.29030798612248
H           -1.87332597659891       -2.09925442167944       -0.15762138542591
H           -3.61023819780539        1.36082000306932       -1.64617716153601
H           -6.07248222390456        1.35294768389538       -1.63801897265798
H           -7.29992344834959        0.00171306416455        0.01348483560607
H           -5.03102662862664       -2.54325853525734        3.50228123498456
H           -2.62068812386588       -3.70692895580810        2.90612983984477
H           -0.38870045571284       -4.02322171039664        3.88429742602354
H            1.08442301374987       -2.08800473247060        4.23781558060366
H            0.31892256411938        0.16674043516674        3.62860052030409
H           -1.91825837589719        0.48284425449235        2.66085543742316
H           -1.65880555644547        2.14671212181924        0.01220075160279
H            0.80268020754514        2.01581303000054       -0.12170053063722
