116
 energy: -21.615027354693 gnorm: 0.000516154485 xtb: 6.5.0 (97a52f5)
C            0.84253894595340        0.21840381529881       -0.09188225739390
C            1.77430098710708       -0.76440828493433       -0.82547247706201
C            3.14356580795777       -0.80469664990312       -0.12198505523174
C            1.14892952140279       -2.17122771244469       -0.75198514069508
C            1.96205368550367       -0.29627547288824       -2.27709379580465
C            2.50572700739414        0.94797955576014       -2.52677218955015
C            2.66868860318016        1.42666431839995       -3.82341519511128
C            2.29513602205889        0.61097821126584       -4.92222308721813
C            1.74298226551133       -0.65823474484232       -4.67896231284081
C            1.26194228206551       -1.50477117762564       -5.86471517083626
C            0.09883853049722       -0.77371121170060       -6.55928325873275
C            2.41809037911999       -1.70599091812862       -6.85976352016364
C            0.77202750494820       -2.89516796559120       -5.41578982132724
C            1.58698812338924       -1.07667751160280       -3.36769170261703
O            2.45812100771694        1.06754384990981       -6.21386111859575
B            2.43615986733595        2.54130931633006       -6.43295046741848
C            0.90474141978732        3.02876406714553       -6.49263774734121
C            0.44713848480577        3.71428835787102       -7.59293366605857
C           -0.89610169121470        4.00525523335087       -7.71147521327469
C           -1.76948482350926        3.59978887083661       -6.73083258769207
B           -3.34140732520498        3.73505594711481       -7.02338799663753
O           -3.66935237957046        5.13518551309437       -7.38964181857968
C           -4.24663858207633        5.61155096487430       -6.23408719230912
C           -4.54610268728437        7.03387129838229       -6.08566414470287
C           -4.26674086080312        7.92083619072031       -7.12064922052917
C           -4.53873285312669        9.26385603325568       -6.98428852336282
C           -5.09304395716365        9.74222521118343       -5.81241166853709
C           -5.37489656849314        8.87269085815446       -4.77619402777563
C           -5.10427904686131        7.52940217802497       -4.91045104803349
N           -4.51828796679942        4.74467561257870       -5.28390778498559
N           -4.14019043481259        3.53624630046356       -5.73876138984006
C           -4.49725766368999        2.34131065773579       -5.31298423386605
C           -4.22572321665286        1.19996665496292       -6.12380268286007
C           -4.37987479783757       -0.09108709092926       -5.62543724693426
C           -4.13985385637564       -1.20135916650419       -6.41161704903937
C           -4.32185898106053       -2.63582052141438       -5.89221265255701
C           -5.46121765379030       -3.31473071470496       -6.67371357249295
C           -3.01487351133654       -3.42445584441047       -6.09260380473187
C           -4.67284680658946       -2.65964122410842       -4.39180931528510
C           -3.74413987249388       -0.99566057751425       -7.72949247818160
C           -3.58647149142126        0.26487366682835       -8.27965900284039
C           -3.13222699764748        0.46597986037789       -9.73024295690988
C           -4.20352896899912        1.26609233057871      -10.49066911869964
C           -1.80343491459882        1.23924190718881       -9.73682576130621
C           -2.91581119510487       -0.87416067868739      -10.46031929525215
C           -3.83450805114181        1.39003347027732       -7.47466609921162
O           -3.71640301273058        2.66514895537460       -7.99253070315642
C           -1.30927095905524        2.93843379686853       -5.61760128065558
C            0.03352007719012        2.65805743761476       -5.49536198785394
O            3.17697000390781        3.04539108826590       -7.61823198879894
C            3.85762043448187        4.12233284117854       -7.09792255456956
C            4.54481826078562        5.05987930343008       -7.98304253221823
C            4.54220944523124        4.85154341352921       -9.35882468251115
C            5.17910962882948        5.73419100365868      -10.20223547941480
C            5.82778068049469        6.83927738858259       -9.68533069950549
C            5.83733829282768        7.05920690669507       -8.32120067664296
C            5.20126608421209        6.17790486598978       -7.47588846898583
N            3.86389073775911        4.26402244261982       -5.79109882202789
N            3.15805915265758        3.23519548538445       -5.28193234167397
C            3.21503158188614        2.72060486468862       -4.06943439257497
H            0.67235846214362       -0.09946751408436        0.93622706841188
H           -0.12390600980384        0.27770262321128       -0.59145964215840
H            1.26671526715127        1.22096463570291       -0.06391050764750
H            3.04351202866488       -1.15191394733890        0.90586165534072
H            3.60513483595039        0.18126031042237       -0.09628522685005
H            3.82315789337193       -1.47929327551006       -0.64166336716391
H            1.02666658466483       -2.48516950303701        0.28422869338757
H            1.78103502897117       -2.90821869836545       -1.24619041047797
H            0.16441280558284       -2.18822806586350       -1.21838253396228
H            2.80034912478212        1.57587179753190       -1.70572687683673
H            0.42099789835490        0.19770721875140       -6.93099775345284
H           -0.72558827029109       -0.60897742426884       -5.86630257113441
H           -0.27935963018747       -1.34870532525209       -7.40373632998659
H            2.77673165100730       -0.75091678774583       -7.23930935025235
H            2.10088642192520       -2.30684513277436       -7.71135923840897
H            3.25538421907509       -2.21162370773726       -6.38028387346933
H           -0.06993168796069       -2.81357903511812       -4.73021782830277
H            1.56841770625711       -3.44881790207606       -4.91962660157150
H            0.44421351571152       -3.48391185157533       -6.27195195797749
H            1.15504936928984       -2.04038153320428       -3.18224065297162
H            1.14288090756737        3.99208690154527       -8.36527188139971
H           -1.27767100364484        4.51934287708837       -8.57695754535413
H           -3.83316273761543        7.53825030664021       -8.02849016255669
H           -4.31818282245915        9.94246326285404       -7.79202737821067
H           -5.30429882316764       10.79370534566402       -5.70612623163824
H           -5.80585031089477        9.24634412224649       -3.86170576526787
H           -5.31769468454581        6.84581282838097       -4.10754765374667
H           -5.01891083134984        2.24780996363423       -4.38074800393544
H           -4.69102346095944       -0.20678101702127       -4.60401901743315
H           -5.23429411851764       -3.36487813556997       -7.73772831567845
H           -6.39186217434593       -2.76060991999432       -6.55608860136831
H           -5.62586233398668       -4.33154950132559       -6.31883042909470
H           -2.74803868747368       -3.49732004683150       -7.14569029758866
H           -3.10635712869900       -4.43774842974505       -5.70286155200250
H           -2.19399244033154       -2.93543578703104       -5.57153439170261
H           -5.61632800755119       -2.14978755745391       -4.20034081235931
H           -3.89288062455449       -2.18125557661527       -3.80019998734884
H           -4.77583918580029       -3.68422052044854       -4.03565101283545
H           -3.56396524635646       -1.85892585788838       -8.34112694328101
H           -4.36166772581404        2.23898559672268      -10.02793326363268
H           -5.15487593929968        0.73542546954053      -10.48837505109067
H           -3.90835816436880        1.43008075900583      -11.52641546138481
H           -1.92728502913016        2.21534685455318       -9.27328464809924
H           -1.44202445927679        1.39279249383695      -10.75295737739629
H           -1.03768924404639        0.69917593923207       -9.18139244355817
H           -3.83627544912373       -1.45583158288793      -10.49499607567906
H           -2.14605932871177       -1.46876135889968       -9.96950381893850
H           -2.59461898806849       -0.70567817451630      -11.48770490965455
H           -2.00722012435059        2.61916126580633       -4.86476874274905
H            0.40158236526816        2.12170685309850       -4.63985543011108
H            4.03386511717873        3.98795954906080       -9.75176120158470
H            5.17112071112815        5.56316670640514      -11.26635708316698
H            6.32549223141778        7.53000461326301      -10.34619527956833
H            6.34254152419858        7.92198884286906       -7.91867337769199
H            5.20064750700764        6.34443549768639       -6.41306877472984
H            3.71662779758110        3.26340795755129       -3.29231129188359
