84
 energy: -19.351955666297 gnorm: 0.000849052109 xtb: 6.5.0 (97a52f5)
F            1.31403054484289       -0.15558124311069        0.77989315269886
C            2.61609595397193       -0.10288252717781        0.40551501600864
C            3.26157109613398        1.11493780259435        0.28656885546401
C            4.58378500317377        1.17005790613413       -0.09280306383418
C            5.29268315353969        0.00557429578443       -0.36328775995930
C            6.64662521690063        0.06033782284440       -0.74494775162839
C            7.82645740992853        0.10540297357166       -1.05567492891335
C            9.19549551842314        0.14914230505892       -1.38069222945950
C            9.84046579806952        1.38545491332478       -1.53260740896854
C            9.11151103551356        2.58116887535684       -1.38695984793688
C            8.46848849964048        3.61338519615166       -1.27764634163109
C            7.72005773794899        4.80048673162574       -1.16077268866047
C            6.40713778609767        4.85997279881575       -1.61343456843317
C            5.67694386527415        6.02176691183222       -1.50091266281734
C            6.23928443497230        7.15214567966178       -0.93539856539421
F            5.51765617248672        8.29429466855122       -0.82107295583527
C            7.54610313712076        7.10138670267099       -0.48460638243134
C            8.27835641022737        5.94065659746393       -0.59476701326977
C           11.20959418825034        1.42726658003398       -1.83356322900783
C           11.86967077083597        2.66207330088725       -1.98349802644409
C           12.47822877772728        3.71134077058500       -2.12365348728114
C           13.20423894983688        4.90566717179721       -2.29467642562645
C           13.13403903372416        5.92330618348026       -1.35048574307511
C           13.84647477376138        7.08925517657129       -1.51971121672037
C           14.64832152653433        7.26659978107945       -2.63296084107860
F           15.35313472247573        8.41335290227337       -2.79561949904694
C           14.72374990110374        6.25801931433591       -3.57687820469010
C           14.01037209942617        5.09206648767008       -3.41173728531279
C           11.93089145446519        0.23371017355767       -1.98681915159440
C           13.30813694775654        0.28993971704373       -2.27341554405090
C           14.50343593830384        0.39493009144939       -2.49916278879878
C           15.87890708485732        0.56954985086303       -2.74327625167000
C           16.41101978435649        1.84534197637700       -2.88872015097307
C           17.75575737348752        2.02289012414532       -3.12331623553830
C           18.60130112304856        0.93191478531637       -3.21706529266203
F           19.92597507034022        1.10816228339410       -3.44608124591783
C           18.07885366217532       -0.34099069521971       -3.07251874462984
C           16.73431055459167       -0.52169827715303       -2.83784346536390
C           11.28281909517039       -1.00278627144132       -1.84981410221756
C           12.00768033966679       -2.19748201373040       -2.02131414576310
C           12.64975266391948       -3.22330594480430       -2.18398428417913
C           13.39464207046967       -4.40065747073094       -2.38930048561278
C           14.42731311639942       -4.43268312012255       -3.31918144342319
C           15.15761855196604       -5.58251690633355       -3.51933692194524
C           14.87460942386086       -6.72808865831367       -2.79737121804732
F           15.59714299042510       -7.85863251250248       -2.99255283458785
C           13.84673802722695       -6.70482788729891       -1.87184132040015
C           13.11531424420427       -5.55613195443962       -1.66896160535940
C            9.91427499599633       -1.04462056586891       -1.54475681921278
C            9.25547062753707       -2.28094189199921       -1.40341556420999
C            8.65775350299824       -3.33824526482262       -1.27758270452777
C            7.94996307366493       -4.54762986100356       -1.13849908832086
C            8.47330733957822       -5.59745052754956       -0.39281527860925
C            7.77837303956863       -6.77824806002399       -0.25731239293087
C            6.54394027252960       -6.93925992395449       -0.86065193871101
F            5.85870055434083       -8.10097942251202       -0.72249751156189
C            6.01644876785291       -5.89899880666754       -1.60466089725788
C            6.70984458062504       -4.71757913573097       -1.74324873255089
C            4.63800762008051       -1.21426471431171       -0.24088444343190
C            3.31567406807919       -1.26618596668150        0.13850077792406
H            2.71008608324412        2.01411011035564        0.49748329185940
H            5.08515531351552        2.11853819196422       -0.18248163596457
H            5.96826674487694        3.98349042911344       -2.05899157109859
H            4.66075604974204        6.07098670386275       -1.85051377726097
H            7.97614275180821        7.98587635855676       -0.04854392595503
H            9.29529949775644        5.90436590665054       -0.24316555710683
H           12.51347434201528        5.78696485636521       -0.48122203432916
H           13.79263672638346        7.87939864932716       -0.79148055587632
H           15.34766816780149        6.40568058011711       -4.44065815026949
H           14.06503777340083        4.31250133083254       -4.15250780862083
H           15.75440309649221        2.69533093986676       -2.81375462348292
H           18.17083113005042        3.00892318955901       -3.23600358987136
H           18.74410435476441       -1.18316546849302       -3.14608823175656
H           16.33059950926106       -1.51307422301984       -2.72263049609848
H           14.64721696304018       -3.54381553782370       -3.88551293159218
H           15.95753223418968       -5.61010713185931       -4.23814000736202
H           13.63311679070531       -7.60053937215053       -1.31564070846638
H           12.31640880087834       -5.54101781284866       -0.94746352355472
H            9.43237178003820       -5.47402618021972        0.08071863971994
H            8.18128704165123       -7.59268969861678        0.31879236759163
H            5.05689503740506       -6.03391930684751       -2.07193641406267
H            6.29902692046443       -3.91189934476821       -2.32766925408736
H            5.18171800978769       -2.12075709669394       -0.44526754288392
H            2.80597338344737       -2.20849528865374        0.23500096801422
