57
 energy: -12.018947689088 gnorm: 0.000422867646 xtb: 6.5.0 (97a52f5)
F            2.08671886153135       -0.38564828697485        0.66279047025378
C            0.74147784224984       -0.29383385089481        0.50164476964552
C           -0.02248362563273       -1.43368744945494        0.31554573460117
C           -1.38549427779441       -1.34403100948649        0.15254699422032
C           -2.02373609351571       -0.10554738143044        0.17043719204523
C           -3.48975113904531       -0.00240628291742       -0.02343192077996
C           -4.05961204103943        0.67314765683737       -1.06194733130152
C           -3.43038204695254        1.30764968041554       -2.20711487531947
C           -2.20993736475896        0.86481788722228       -2.72075329704785
C           -1.65303182215996        1.45802551831518       -3.82912730745771
C           -2.29477231714156        2.50771383547040       -4.46494495238818
F           -1.74240670999507        3.09108764898486       -5.55933335068191
C           -3.50918398711039        2.95219830100618       -3.96971478692766
C           -4.06946866578729        2.36179552111816       -2.86222737931022
Si          -5.88160587801809        0.51927720812450       -0.84581291939747
C           -6.64743056257076        2.18949621879206       -0.55390215264428
C           -7.49601735663653        2.74051010462776       -1.48963118715894
C           -8.00436476694188        4.01007922359295       -1.29951299320851
C           -7.66222694595871        4.72568172006234       -0.16967310459504
C           -6.81282221469488        4.17333609525745        0.76791778712459
C           -6.30515443010883        2.90397570843833        0.57331650558187
C           -6.64751499342767       -0.44981788459547       -2.23937242547490
C           -5.87356855378863       -0.86104008435658       -3.30297589383580
C           -6.44224178650758       -1.57104505364635       -4.34113124623802
C           -7.78995123729990       -1.86796598358797       -4.31289132634431
C           -8.56610318211962       -1.45662401635866       -3.24790936691737
C           -7.99245659456854       -0.74822481983766       -2.21037640940613
C           -5.80116644003716       -0.46803079919218        0.69839224082505
C           -6.75518569720798       -0.98137122036841        1.54303118062664
C           -6.35663121000352       -1.65374518930017        2.68301133905252
C           -5.01090186224303       -1.80359687030250        2.96781150259772
C           -4.05307675469884       -1.28761671000260        2.12025736057029
C           -4.43856355686692       -0.61001542318345        0.96280188348627
C           -1.24761187604231        1.03638575493223        0.35903033497111
C            0.11501148186784        0.94084129006090        0.52139876747640
H            0.47189862472264       -2.38866590756027        0.29839140297287
H           -1.97440082895956       -2.23183571674287       -0.00123585029083
H           -1.70757573887251        0.04250096778002       -2.24387047238525
H           -0.71216944624121        1.11566371243179       -4.22194928540370
H           -4.00459301879233        3.76483226376180       -4.47053772900039
H           -5.01565910197364        2.70753061673792       -2.48605972940035
H           -7.75469219097264        2.17217673590094       -2.36677310658222
H           -8.66693841364206        4.44072111834617       -2.03216197195890
H           -8.05842839060071        5.71663051109827       -0.01968514603407
H           -6.54482748261869        4.73148062671160        1.64989412017390
H           -5.63794570291628        2.46190270215076        1.29377819832417
H           -4.82600537280987       -0.61529423616629       -3.31732290634045
H           -5.83505133449558       -1.89034641796768       -5.17221226977242
H           -8.23650730064099       -2.42042521120214       -5.12331136662738
H           -9.61849268545359       -1.68734170574879       -3.22567975870256
H           -8.58755333207758       -0.42275992662211       -1.37401981004549
H           -7.79792222529675       -0.85078080222366        1.31124561472756
H           -7.09676975432996       -2.06038901839360        3.35228337910084
H           -4.70857714042117       -2.32695677336164        3.85996103529985
H           -3.00700380660693       -1.39819800422288        2.34421876534919
H           -1.73105243452407        1.99797374836002        0.37116084499761
H            0.71500488255652        1.82189965959127        0.66421620500084
