52
 energy: -11.256201231904 gnorm: 0.000932613113 xtb: 6.5.0 (97a52f5)
F            1.85148774920614       -1.01850166439383       -0.50760111614698
C            0.53837569069192       -0.71492295100436       -0.41278533005441
C           -0.32429828351590       -1.53871795867656        0.29266161698249
C           -1.66006785467192       -1.23552091915974        0.38785863215675
C           -2.18574254949924       -0.09254160493220       -0.22618641074925
C           -3.59892453467024        0.23116362263919       -0.13749122873278
N           -4.16553291648249        1.46847269403547       -0.13321877377791
C           -5.53025168248012        1.45172637429612        0.03580971774458
N           -6.37288082352569        2.47045861787489        0.15818363207062
C           -5.76256170762833        3.64948749506812        0.14956079195173
C           -6.40100013073456        4.92503686067764        0.37273558005055
C           -7.73436358538001        5.26068564806365        0.57790090889144
C           -8.06323769764496        6.58880654536643        0.73291684948003
C           -7.08494128631032        7.57837126332819        0.67507791809157
C           -5.76013388013917        7.25937327238952        0.47535368608701
C           -5.40017074336346        5.91746073051122        0.34099799695938
C           -4.13225101357758        5.25907215329604        0.10418044719348
C           -2.81970072125717        5.87900090183695        0.05055597746068
C           -1.79400965511983        5.33211037421102       -0.72496919395274
C           -0.55699249551911        5.92169037955377       -0.79010214495415
C           -0.29252764688783        7.07877451253063       -0.07568498291305
F            0.92516955468155        7.66076214847328       -0.14019278113431
C           -1.29257824186760        7.62742874986917        0.71103539787312
C           -2.53211147821028        7.04036648152160        0.77710475546556
N           -4.42761399801800        3.93640447161152       -0.01623765432331
B           -3.45548257052838        2.80465155269959       -0.34639544423385
F           -2.36003280425420        2.88221400360798        0.49415873191446
F           -3.10246070700681        2.90450259240241       -1.68324257916046
C           -5.88716666444747        0.05525864272473        0.11800900604446
C           -7.12062671788031       -0.57014433405715        0.25834921366002
C           -7.16416151980354       -1.94634603778312        0.27003101970421
C           -6.00028717183835       -2.69885946851174        0.13323887668972
C           -4.77159750415778       -2.09191669888809       -0.00307299013929
C           -4.69999944110770       -0.69786582899428        0.00853768770246
C           -1.29785654679591        0.73283197250519       -0.92101270936289
C            0.03612061043235        0.42722445404485       -1.01521973891240
H            0.07757026211361       -2.41531804421387        0.76970560429192
H           -2.30601724648963       -1.85845452472972        0.98026603593324
H           -8.48241423366937        4.48833794698583        0.60567270501186
H           -9.09203757735281        6.86731594300983        0.89150017023809
H           -7.37094578857145        8.61192360952322        0.78138850245090
H           -5.01812643688357        8.03200464706397        0.38929940313710
H           -1.99132559114326        4.42835300972256       -1.27059292831720
H            0.22707471556758        5.49604124827084       -1.39122668619069
H           -1.07319041602547        8.51754362363013        1.27398763456987
H           -3.28059538254170        7.44979386502732        1.43154415983637
H           -8.01407026339170        0.02230877979826        0.34603344204037
H           -8.11197960371954       -2.44800777263942        0.37548185927118
H           -6.06372564959864       -3.77462582865855        0.12698127523641
H           -3.88433957093986       -2.68005951673393       -0.15113891163740
H           -1.68119584587405        1.62516474827214       -1.37984998202709
H            0.71321959783503        1.06782921693113       -1.55230764947058
