76
 energy: -16.652179991423 gnorm: 0.000216442572 xtb: 6.5.0 (97a52f5)
F            2.05103623108976       -0.29966417515567       -1.06861553384799
C            0.72752694459896       -0.24274102758603       -0.76862384474360
C           -0.14351480124903       -1.20408223813886       -1.25267589663412
C           -1.48331265784232       -1.15016183744281       -0.94772548616389
C           -1.98819909041425       -0.12995225477321       -0.14711657234618
N           -3.38682097091028       -0.05794369922071        0.17196722638728
C           -4.13413012295303       -1.27444888826313        0.32833215539783
C           -3.58392999419791       -2.37060016673265        0.98585567860400
C           -4.30826277227736       -3.52856273976268        1.14413814878922
C           -5.59910944934559       -3.62376957741627        0.65230556714987
F           -6.31252672306850       -4.76885276416833        0.80975378116917
C           -6.15339146127240       -2.53639611403425       -0.00149719094772
C           -5.43246563657374       -1.37675079414173       -0.16221761789821
C           -4.03859806416618        1.21520275291538        0.18455356131657
C           -3.75545397766024        2.13661017036968       -0.80964743178207
C           -4.38628790603407        3.36002279009390       -0.86103837773372
C           -5.33428872165944        3.73893702660786        0.08680978482229
C           -6.01469850347146        5.02372761047100        0.02528541468973
C           -5.77015385198620        5.93785388600211       -0.99351663786555
C           -6.40856733513457        7.16537863757084       -1.03569334528362
C           -7.31346261588616        7.50602703230431       -0.06983920064165
C           -7.62380997863886        6.62264651736722        0.97417353695748
C           -8.56212179579653        6.98288973549163        1.99028634798450
N           -9.28530602267410        8.21655877834975        1.94672679674572
C           -9.44662279712146        8.98672373865778        3.14782864567044
C           -8.40826415903139        9.07879834573335        4.06979841204063
C           -8.55461797720468        9.81675975153657        5.22067794626743
C           -9.74062679516141       10.48098421526544        5.48361595999658
F           -9.88227872482055       11.21286819877295        6.61903809710683
C          -10.77977603125067       10.39060710448430        4.57306228969618
C          -10.63716430714677        9.65357502718299        3.42097116910976
C           -9.96587974756516        8.63018924615416        0.75108526914975
C          -10.55905363224499        7.69036862386523       -0.08644334816929
C          -11.19612179763654        8.08259266134389       -1.23993720811775
C          -11.25604888205295        9.42102378566139       -1.58944850270510
F          -11.87985562599718        9.80594643182160       -2.73295189759648
C          -10.66722547129241       10.36145944729128       -0.76105572643063
C          -10.03001957786798        9.97372552280431        0.39402605373474
C           -8.76958536579578        6.10438895697883        3.04041296908471
C           -8.12690590623405        4.88735142251308        3.10079638278526
C           -7.22781424550009        4.48047293868662        2.11736496531581
C           -6.55802608987031        3.18955135498666        2.17099316307558
C           -6.78825970397033        2.28309543601410        3.19991883219846
C           -6.13306956416182        1.06485970223037        3.25392247052937
C           -5.24183122677533        0.71655323109706        2.27808057986863
C           -4.97875172989318        1.57373598975005        1.19973785872847
C           -5.62963630118753        2.83581960293712        1.14769029154656
C           -6.95819861883173        5.36895217534101        1.03747341934488
C           -1.10707275789243        0.83417694731967        0.33328954267336
C            0.23193962280356        0.77664289363774        0.02645114342304
H            0.24943765451282       -1.99081078916529       -1.87194457294311
H           -2.15944887626575       -1.89130571680038       -1.33603689275667
H           -2.58537434452739       -2.29467298009611        1.37912530382452
H           -3.88623210075802       -4.37738018504427        1.65233846022154
H           -7.15697863351912       -2.61842778568471       -0.37954434974901
H           -5.86383616888892       -0.53285464890046       -0.67124745019411
H           -3.04111956221741        1.86727556597663       -1.56787315625292
H           -4.13207057956134        4.02987492862066       -1.66120444710391
H           -5.06848363121602        5.70132559872760       -1.77151872868328
H           -6.18993557817546        7.85586578256682       -1.83369420027276
H           -7.79412287155503        8.46627506844028       -0.10043298413355
H           -7.48321404152106        8.56993870994365        3.86284707508902
H           -7.75225684054306        9.89213045733546        5.93300532581722
H          -11.69886774948804       10.90679492517267        4.78679914651869
H          -11.45099341684848        9.57503273229242        2.72185156857098
H          -10.51298982187396        6.65031039802451        0.18465049183893
H          -11.65605309152863        7.35875549006271       -1.88905057250521
H          -10.71638046782854       11.39863000528880       -1.04156616286275
H           -9.56173732201098       10.70440475661565        1.02991144409689
H           -9.47131980934076        6.38127297422812        3.80761917894924
H           -8.33626695258667        4.24272230851750        3.93398561020884
H           -7.48503810943825        2.52215578915173        3.98155470290370
H           -6.32575650007836        0.38872594072187        4.07065924896937
H           -4.72582633146845       -0.22405129360262        2.33439325353896
H           -1.48995997944765        1.62290416158877        0.95686211308805
H            0.91509181739568        1.51934639328410        0.39869095132956
