70
 energy: -15.291948091367 gnorm: 0.000818756195 xtb: 6.5.0 (97a52f5)
F            0.77771434949393        3.91418655935170        3.03746900259249
C           -0.20610279548327        3.14922935742212        2.49312272291079
C            0.10335078523564        1.96881601031613        1.83798402885011
C           -0.89011679402939        1.19347950830361        1.28747488504947
C           -2.22425933021734        1.57898118949719        1.37927703397630
N           -3.26390045099399        0.77803125597317        0.79568130958416
C           -3.18906273630469       -0.65340030167442        0.89143684748323
C           -3.69231645544503       -1.45328915630427       -0.13099412332135
C           -3.62853064248387       -2.82557228184549       -0.04604899720294
C           -3.06263933181728       -3.42480198517755        1.06206332782637
C           -2.56160727822895       -2.64517558194162        2.08618576165422
C           -2.62428724600883       -1.27247076699704        2.00318506600365
C           -4.43224442510339        1.38106237422387        0.22707652560973
C           -5.69249497892786        0.88698070477619        0.57451424287941
C           -6.84570160460027        1.43198945371349        0.07382244149970
C           -6.80056707848608        2.50590941290928       -0.82488516802978
C           -7.97920540258995        3.09470707195611       -1.35801913240411
C           -7.91029249378032        4.11623941272347       -2.24659840004608
C           -6.66469846934299        4.63478250620325       -2.69159217710490
C           -6.58053983756829        5.69006291998043       -3.63606778440000
N           -7.74862875185788        6.21837710083048       -4.27516291040346
C           -7.87411814264337        7.63518303119348       -4.47055045168835
C           -7.40567458699285        8.52339747480903       -3.50654427236298
C           -7.51874344026964        9.88306420696176       -3.68908642072946
C           -8.10036531614976       10.38134710721728       -4.83798726882787
C           -8.56797852707798        9.51336856104752       -5.80474518446258
C           -8.45577414095460        8.15332337632904       -5.62419505563507
C           -8.71886508064725        5.33428171098437       -4.85998558856338
C          -10.07645720258521        5.63928044860286       -4.82848730545295
C          -11.00072716575099        4.77743815449162       -5.37125840839655
C          -10.59745922172497        3.58986258892563       -5.95895524879552
F          -11.51366273062842        2.73819678725225       -6.49327649054063
C           -9.24817150452709        3.27994085122065       -5.99271959980857
C           -8.32071413286253        4.13855093934317       -5.45100031053336
C           -5.32223274177984        6.19495217089763       -3.97480805303146
C           -4.16912093001394        5.66881074800922       -3.45309811445768
C           -4.21220867592869        4.60108910236826       -2.54625827975033
C           -3.03380552239105        4.01071905186076       -2.01410425346811
C           -3.10193207326051        2.98156101030622       -1.13397257042034
C           -4.34684285586895        2.46012485290689       -0.69051609215985
C           -5.53916407779347        3.01705334964963       -1.21673482178196
C           -5.47288262028849        4.08923564996794       -2.15329264528297
C           -2.52811221751264        2.76753632633409        2.03656954229907
C           -1.53157276703804        3.54000217430986        2.58578235670226
H            1.13492439703078        1.67301990360139        1.76715154816877
H           -0.64605081228665        0.28231113931021        0.77007192861503
H           -4.12567253839822       -0.97972478858627       -0.99442212782310
H           -4.01998019970105       -3.43276654024832       -0.84567999211728
H           -3.01315078360902       -4.49923644128203        1.12801324142789
H           -2.12292607264656       -3.11227120246474        2.95262334152028
H           -2.24623420829018       -0.66144604783387        2.80382355102814
H           -5.74354216824212        0.06672680136290        1.26880830118606
H           -7.80286034503730        1.03730687669939        0.36760588673052
H           -8.93524817673436        2.71364141038271       -1.04379177560150
H           -8.81379311820917        4.55241103665448       -2.63089482270184
H           -6.95992316849241        8.12913728833102       -2.61053242145729
H           -7.15325916510768       10.55968720240250       -2.93433802382101
H           -8.18826773271934       11.44589960525354       -4.98018754935165
H           -9.02000083095422        9.90130487136015       -6.70248445314880
H           -8.80712692152765        7.47409881892297       -6.38058787539839
H          -10.39336325782158        6.55531987636653       -4.36168024916934
H          -12.05055284015595        5.00993219129620       -5.34787704801600
H           -8.94220671116194        2.35458415699499       -6.44756297328886
H           -7.27304944909063        3.89547173471056       -5.47590430120930
H           -5.27137063917775        6.99947291507579       -4.68725573818937
H           -3.21279892769618        6.06698831986988       -3.74486116623104
H           -2.07794858211241        4.39233081500275       -2.32816061957728
H           -2.19800427071290        2.54002484511929       -0.75741674505791
H           -3.55725177474111        3.07193952109063        2.11025417485939
H           -1.76404505936736        4.45854125143551        3.09465594275602
