64
 energy: -13.223167976714 gnorm: 0.000336461401 xtb: 6.5.0 (97a52f5)
C           -2.46988475355233        2.72271490625144        4.04189048338161
C            4.86410294946488        0.39521548201079       -3.48293908782650
C            6.13342267426543        0.52969974389641       -4.24947373118888
C            3.69128069132110       -0.21812410714117       -4.16482595587275
C            4.77807968355200        0.82427878098660       -2.16775608264411
C            5.90227615389384        1.40321943970583       -1.50122548634780
C            5.83760918722133        1.82360846107462       -0.19087208285200
C            4.60577858382780        1.68623768151931        0.47406332278600
C            3.45780830320728        1.13022458639843       -0.11946878853167
C            3.56313923073522        0.70128474768113       -1.42448161599359
C            2.21528312280068        1.03495977962333        0.65750796365263
C            1.01624090718354        0.65282183537680        0.04999561798144
C           -0.14453914366131        0.52248872304101        0.77421213971544
C           -0.14724991279518        0.78863072031235        2.12997573433808
C            1.00556918554104        1.19228840495437        2.76992291451472
C            2.20743109760380        1.30513957527977        2.04842993921399
N            3.39136298116582        1.65544069718636        2.71118460048799
B            4.51539462657515        2.15303779324617        1.88855230293535
N            5.55849264114102        3.07653276705943        2.38737500327502
C            5.18783263837393        4.05820989695801        3.33223642162748
C            3.84788158544105        4.41294697004763        3.47439153416111
C            3.45992095508990        5.38925391001589        4.36218641553504
C            4.40825062571480        6.03520334855034        5.13208307498271
C            5.73967369686265        5.69298633279561        5.01039004297000
C            6.14065714630546        4.70997034432224        4.12112039745989
S            7.84840813434773        4.29435254050395        4.03958570768463
C            7.94479514980116        3.54575705164053        2.44508829549448
C            9.18922704981910        3.48194384447818        1.85440669366562
C            9.35463052957540        2.87436572147692        0.62442279215683
C            8.27162380236055        2.33140037557048       -0.02447130175500
C            6.98887307014364        2.38428886100995        0.52773726240143
C            6.82459367313216        3.00215457977182        1.79229234978935
C            3.61872314334877        1.39329707574550        4.08008705756420
C            4.91753443161511        1.20253241234695        4.54658057655298
C            5.16071714009557        0.89893955013957        5.86604756213224
C            4.10580029509317        0.78007213528836        6.75111550726191
C            2.81325804250817        0.97802814012374        6.30965872755028
C            2.55806729235355        1.28973609772789        4.98482263195300
S            0.89796094560759        1.59506412600524        4.48804887952254
H           -3.08751212022697        1.85629495253053        4.12998113670213
H           -2.54370236568245        3.11756030883988        3.05269591385115
H           -1.45524828881583        2.46384964929743        4.24884615520812
H            6.02978286797176        0.15000865244710       -5.26645237337331
H            6.93864909288081       -0.03048307456786       -3.77251519685107
H            6.43746738539863        1.57472604957522       -4.32135127174112
H            3.36922020413024       -1.12339802323411       -3.64860849607710
H            3.92557180082994       -0.49525146170088       -5.19314885993655
H            2.85070528250270        0.47615644019184       -4.19735187767325
H            6.81655687145210        1.51930707449136       -2.04881769061210
H            2.71666366159064        0.24985386053445       -1.90268116369526
H            0.99033205193880        0.46168462953795       -1.00724768016151
H           -1.05589089397709        0.22015819053283        0.28467966576194
H           -1.05616241146339        0.69084772609119        2.69907857395475
H            3.11345561953908        3.89110336109765        2.88817705196377
H            2.41781119833578        5.64542782314468        4.46086519663135
H            4.10841158848671        6.80032081182962        5.82922602085109
H            6.48566920845686        6.18504994623120        5.61219435445489
H           10.03524910375430        3.90269667362641        2.37267462279473
H           10.33427088383302        2.82214738856255        0.17818243341810
H            8.42534025938070        1.84488445154757       -0.97040658596959
H            5.73350977574451        1.31670373262542        3.85611280637628
H            6.17240186703876        0.75837634136722        6.20963252387683
H            4.29247827517187        0.54034180842868        7.78502880083457
H            1.98512152451677        0.90257935400496        6.99465811988065
