33
 energy: -5.827534769095 gnorm: 0.000828737847 xtb: 6.5.0 (97a52f5)
F            2.21284240802305       -0.08690725321250        0.15764605722399
C            0.86445378277753       -0.07583604905253        0.08141174946307
C            0.16142704786757       -1.26333001768689       -0.01840560463066
C           -1.21353061569533       -1.25180888394397       -0.10793168751063
C           -1.89726891287702       -0.05870560974515       -0.09783194961813
C           -1.21303984620357        1.15416816323516        0.00619883564219
C           -1.94360674070783        2.44568593710979        0.02325873852056
C           -2.81144296886506        2.77498358116019        1.08415549068705
C           -3.01679215032881        1.91532077166657        2.19020487322228
C           -3.85943057948356        2.25776980545270        3.19905587413534
C           -4.54333053584533        3.47961317606943        3.16578146490142
C           -4.36401634950464        4.33749902118941        2.12936857934775
C           -3.49306415470261        4.02143539083639        1.06226894661469
O           -3.33805071429326        4.92707392602905        0.05893716356125
C           -2.49703324686623        4.61044333777576       -0.96244824932909
C           -2.32778629962417        5.54133886221104       -2.01222678872326
C           -1.51486597670031        5.27081180766045       -3.06498937491640
C           -0.82659613224741        4.05280601880183       -3.13255705343813
C           -0.95915776237657        3.13378724418040       -2.14111175122294
C           -1.78703954398830        3.38108407139503       -1.01959465162036
C            0.17856273715855        1.11971343709452        0.09526115488585
H            0.71041604839657       -2.18961421120993       -0.02605449775508
H           -1.75414253062081       -2.18140440035244       -0.18807597409416
H           -2.97046792089715       -0.04761786040318       -0.18210835140938
H           -2.48596051670474        0.98049565413313        2.23006416363479
H           -4.00342684621484        1.58912972986008        4.03248526000109
H           -5.21212432837838        3.73842440380391        3.97141841682050
H           -4.87978321307783        5.28162208323298        2.09730078545459
H           -2.86523892921360        6.47197231912490       -1.95331462377339
H           -1.39924681347215        5.99326519314890       -3.85746791423056
H           -0.19083193273163        3.84624503440225       -3.97849156250058
H           -0.43630833679703        2.19585371605092       -2.20649067227343
H            0.73370187419494        2.03505159998182        0.18988315292977
