33
 energy: -5.942593043750 gnorm: 0.000189674391 xtb: 6.5.0 (97a52f5)
F            2.14373589538730       -0.03099199484246        0.38312874639225
C            0.80628403854016       -0.01045634962767        0.19550284741077
C            0.11466459124529       -1.18867405235070       -0.02397448711970
C           -1.24845127171036       -1.16738676451281       -0.22638638507845
C           -1.93106119012878        0.02638500973036       -0.21264335292655
C           -1.25775596866813        1.22963743152160        0.00941958429968
C           -1.98964851372558        2.52569935884970        0.02697905144781
C           -2.83842392719923        2.81005202023822        1.12948258996131
C           -2.98212083702839        1.89417809672135        2.20780313695345
C           -3.79639585432726        2.16262897919623        3.26422223155933
C           -4.52109638242146        3.36198900851703        3.32260547958946
C           -4.40631025554090        4.27303879771894        2.31734516887320
C           -3.57057022424234        4.00352104827540        1.23253480834439
S           -3.46664758671914        5.14518464158569        0.06204751574706
C           -2.44895092093507        4.66770238260865       -1.12979049665540
C           -2.25902434606855        5.54432850769239       -2.19909906380775
C           -1.43004269022190        5.19241410801187       -3.22023494788579
C           -0.77722084149599        3.95135986544862       -3.19371584491148
C           -0.95798569651043        3.09387549080077       -2.15296820546806
C           -1.80541597611762        3.42195663477460       -1.05912345340156
C            0.12154620386472        1.18556453016495        0.21353499327200
H            0.66332072174413       -2.11538573125501       -0.03421021661240
H           -1.78036888324475       -2.08995329342958       -0.39738629848186
H           -2.99439929401025        0.04628376806696       -0.38149154618808
H           -2.42643465214496        0.97317775225466        2.18616800988460
H           -3.88730472256327        1.44954430042536        4.06798258207889
H           -5.16445990610760        3.56155232748963        4.16500662597311
H           -4.94463912243425        5.20868860191094        2.33216766971014
H           -2.78179989409082        6.48885168927806       -2.18933155897940
H           -1.27669442625709        5.86353039172816       -4.05057370396359
H           -0.12726928372022        3.67736832848180       -4.00937385017995
H           -0.45626344951424        2.14209338826336       -2.15578560776258
H            0.66703466636757        2.09349172626210        0.39697797792533
