90
 energy: -18.741818253508 gnorm: 0.000253016841 xtb: 6.5.0 (97a52f5)
F           -0.22761548116827        0.81261114799072       -2.19967702334016
C           -0.85300769459105        0.53675374461656       -1.03247233677101
C           -1.42631813593680       -0.70806870440359       -0.84449895560148
C           -2.22668923082326       -0.94948770246237        0.24931722078946
C           -2.47155138035180        0.05591087670011        1.15733751291803
C           -1.90282933320571        1.30507641374237        0.98975255451069
F           -2.25922948417345        2.31771808339646        1.81451517896977
C           -1.05298780869757        1.52485711319062       -0.08307605724446
B           -0.32516187740549        2.93665108286871       -0.34169344103724
C           -0.12383241971731        3.76324430526982        1.02888303334237
C            0.57607058035454        3.07191766364807        2.00561016792532
F            1.03836412735623        1.82224438020944        1.77400723289400
C            0.82234416772508        3.67517993060937        3.22530759576478
C            0.39230648011668        4.95976313524408        3.46650579877040
C           -0.27690566440905        5.65363545535481        2.48446973350109
C           -0.52964030181454        5.06840976374169        1.25698805636735
F           -1.13287574277242        5.80008857406043        0.29397231115278
O            1.04681954885713        2.70116061778627       -0.86655571516078
C            1.60307159791854        3.57611175769042       -1.74261155656642
C            0.81745280783989        4.53515446878537       -2.40002452181988
C            1.42699052436936        5.43004386443222       -3.30294002137794
C            2.76123656681336        5.36295140104494       -3.56718049034524
C            3.56947929713033        4.38826637333515       -2.95367615729993
C            4.95034424513713        4.26612667668903       -3.28472959271292
C            5.71985432997182        3.25742280015166       -2.68515855934098
C            5.12272377217139        2.40041390090941       -1.73826372698054
C            3.80552730380262        2.51951128847835       -1.41358155582697
C            2.99804888651162        3.49682881623581       -2.02389789060551
C            7.05553140756357        3.05913203625708       -3.12975278904573
N            7.65393721775836        3.86889883069680       -3.97116285708670
C            8.90448918084904        3.53079894401153       -4.59544549484492
C           10.11002294441694        4.00965304530323       -4.10191468204824
C           11.29479638841247        3.69791966111427       -4.72782403295270
C           11.29164128969327        2.89972583170346       -5.85407538372728
C           10.09965397286715        2.41381324156392       -6.35243205789443
C            8.91407262388747        2.72627824107858       -5.72793613333826
B            6.97313498083755        5.19839829562801       -4.34518602806849
C            7.42647377455060        6.39378753110238       -3.36159822475958
C            6.89802806331558        7.62985886625665       -3.70014366618892
F            6.07267627781158        7.76336072916196       -4.76311967507537
C            7.20414502346383        8.73732477819645       -2.93076847260822
C            8.01470448067071        8.61506037821023       -1.82565742466168
C            8.51480520123433        7.38156739099032       -1.47615255064429
C            8.21677736733731        6.26157591579510       -2.23111355176883
F            8.67428099410221        5.05627681442322       -1.82525893586231
C            7.34608375074407        5.51715519603799       -5.87790985923007
C            6.61030060709809        4.85946311354774       -6.84931824711270
F            5.75659861574849        3.86423988626649       -6.51739976457089
C            6.85893970985680        5.12746544812864       -8.18348032716721
C            7.85936275736465        6.00155671930662       -8.54467376209642
C            8.62894031554555        6.60427713414972       -7.57525632787644
C            8.39148100987967        6.35389814913764       -6.23628828357331
F            9.23909654684659        6.84756798980701       -5.30332310001405
O            5.49536161094340        5.10676466236373       -4.20062784442209
C           -0.59215907424849        4.50753644919381       -2.21850728856194
N           -1.18387712450390        3.71900596400625       -1.35258020621834
C           -2.60891292928149        3.52521286071228       -1.34917296838687
C           -3.43222129114543        4.24094737058824       -0.49122315311134
C           -4.79111884081613        4.02637621734867       -0.48538308584018
C           -5.34688644224806        3.09546006404752       -1.33989506134460
C           -4.53925861606714        2.37978339203947       -2.20070341508145
C           -3.17997696342762        2.59300876787643       -2.20643586548183
H           -1.24855582357397       -1.47367765906925       -1.57895251157695
H           -2.67341728639497       -1.92075386333031        0.38655825614628
H           -3.11601747962215       -0.10772641990546        2.00292205386411
H            1.35509305791884        3.12018049008320        3.97710361394214
H            0.58453305848350        5.42384492991210        4.42021658551323
H           -0.60930021566821        6.66317688692401        2.65065218343933
H            0.81538621723814        6.16426289876324       -3.79865731052493
H            3.22224674285305        6.04062112265680       -4.26544649691001
H            5.72305324443921        1.63194317951998       -1.28230942427492
H            3.34935801696940        1.85650063844917       -0.69830001039102
H            7.58498330961982        2.17718627650184       -2.81900259486689
H           10.09738625138619        4.62665791523000       -3.22205181405501
H           12.22544090736151        4.07733427703133       -4.33882758363593
H           12.21963131756839        2.65599826988867       -6.34484810964435
H           10.09662701085453        1.79341836331849       -7.23365794478564
H            7.97532669069870        2.37087462255284       -6.11643308492365
H            6.79646287206651        9.69138794641081       -3.21472624306779
H            8.25303440649517        9.48248024740178       -1.23178884051766
H            9.14002893108540        7.26523950864910       -0.60848322656243
H            6.26781873998010        4.62550033523420       -8.92898038831737
H            8.04984413399008        6.20206515734260       -9.58642876638365
H            9.43206978094506        7.26876024579842       -7.84084813847425
H           -1.21378107550535        5.10727885481859       -2.85769891339654
H           -2.98577381938436        4.96512581708029        0.16547734463992
H           -5.42159213225183        4.58479750679495        0.18698405220413
H           -6.41132996428680        2.92695503605713       -1.33494000051018
H           -4.97231153946008        1.65047695665539       -2.86559655955285
H           -2.53574986576637        2.02911331408049       -2.85871440150041
