39
 energy: -8.481723238929 gnorm: 0.000364945715 xtb: 6.5.0 (97a52f5)
F            2.26718982164366       -0.32678355461298       -0.23120573099014
C            0.92095379800668       -0.29010782252046       -0.08801472883017
C            0.19884844442976       -1.46510057756443       -0.03705562461745
C           -1.16886351243486       -1.44594980468790        0.13777045596386
C           -1.83202615746613       -0.24154448272771        0.26161529771071
C           -1.12988480497176        0.93866515343785        0.20962238310550
C            0.25758851060326        0.94529707007136        0.03171510288236
C            1.01327808313333        2.21444961088358       -0.02593111713104
C            1.77799438006770        2.56889930427407       -1.15657836067261
C            1.85757457135391        1.73614462751200       -2.28966049810691
C            2.58772358564172        2.09889756249117       -3.38947409609623
Cl           2.65015220806234        1.05263042740811       -4.75169260440810
C            3.27649114540207        3.32405838478577       -3.40723790710240
C            3.21700097361706        4.15621838926071       -2.33678256453971
C            2.46815857470895        3.82224754775670       -1.17627894188805
N            2.43640244921993        4.69769745380555       -0.16777246320234
C            1.71431890087341        4.36758039545226        0.93225973984356
C            1.68705940165434        5.26185400896762        1.99968729746881
C            0.99354271928076        4.99122896774316        3.17790414673498
C            0.97336762189921        5.89886857535715        4.26861928878436
C            0.29579434937681        5.59920001966318        5.40718992622428
C           -0.40004725239533        4.38262440440020        5.52747042863747
C           -0.40753483273574        3.48666901562038        4.50682242166562
C            0.28735473783777        3.75976043464611        3.29948053193092
C            0.30330425437209        2.86330443411917        2.23540374075896
C            0.98921509501833        3.13652876893377        1.05166163611106
H            0.72743408537723       -2.39714838654366       -0.13129831957897
H           -1.71951991164443       -2.37137598179610        0.17810524893177
H           -2.90116201642320       -0.22682231937088        0.39561915097995
H           -1.64678447304931        1.87939180647465        0.29041514713330
H            1.34701867041443        0.79069468185896       -2.29649342842840
H            3.84544876182351        3.58622371322471       -4.28285141304285
H            3.73901732922267        5.09674207932782       -2.34862954681850
H            2.22750014122280        6.18539316051559        1.90663337794141
H            1.50630943597211        6.82971194602718        4.18132359044292
H            0.28949443171600        6.29629975907033        6.22886380637134
H           -0.93116847686289        4.16389929523895        6.43915054793120
H           -0.94112273040213        2.55691732940856        4.60127375301316
H           -0.21849231356562        1.93058460208957        2.33817032489025
