27
 energy: -5.737305628758 gnorm: 0.000445949921 xtb: 6.5.0 (97a52f5)
F            2.04931290599999        0.47720035506390       -1.20500608575609
C            0.81139510822665        0.23753089291780       -0.71437856179817
C            0.18607710985759       -0.95772082337758       -1.01475682176570
C           -1.07248212535700       -1.24189526819637       -0.52912083070005
C           -1.72425549681910       -0.32576449941911        0.26932463765377
C           -1.11643406198141        0.86883326531779        0.57671140374389
C            0.15599834911649        1.17829357135745        0.09679119040971
C            0.77514406233165        2.44550344421437        0.43189479659225
N            1.95573403264160        2.82973659456344        0.02261362524008
C            2.27651892999477        4.07331897236155        0.49469340166402
S            3.69615225453081        5.10995954089883        0.29392171628552
C            2.99360840135661        6.36870282114613        1.29804470639224
C            3.52855181282314        7.59954065788532        1.64786283589783
C            2.80179577581543        8.44442177000344        2.45365917112160
C            1.54092926895173        8.07533791393870        2.91791299824669
C            0.99845452447005        6.86085756293281        2.57948201262611
C            1.72760537570965        5.99243645284874        1.75974643211639
C            1.33757406464250        4.68334646413008        1.29038753805341
S           -0.03610265731308        3.63319952880172        1.45978726490024
H            0.70524657205111       -1.66419167759318       -1.63809902205175
H           -1.54536181057496       -2.17915684863499       -0.77260342875697
H           -2.70826631120238       -0.54504597972112        0.65023100959032
H           -1.62416758296909        1.58558378478990        1.19790332507220
H            4.50276200625677        7.87681912207634        1.28414657920311
H            3.21098949827858        9.40248402969905        2.72888922562423
H            0.98713714215501        8.75046268935365        3.54927963541227
H            0.02573285100887        6.56581566263969        2.93167124497960
