50
 energy: -10.057046372594 gnorm: 0.000461328952 xtb: 6.5.0 (97a52f5)
F            1.86326755627082        0.65505335916902       -0.72861957166183
C            3.08610599358190        0.44889573866111       -0.20583210947753
N            3.77255903286601        1.48116703843398        0.26287618774918
C            4.96958726696965        1.22576756593530        0.77090539888753
F            5.70773831299469        2.23938734831568        1.25928894669845
C            5.52072660295196       -0.04479490334422        0.83320406654889
F            6.73933885814793       -0.21031790303965        1.37855273122126
C            4.80651372825072       -1.12564433857213        0.34086160327772
C            5.33414794627835       -2.41997158071934        0.37235730591377
C            5.86135962669333       -3.52207902287659        0.40425024596409
C            6.57396718934662       -4.73159372324691        0.45517664275222
C            5.90502211536406       -5.94636993927566        0.32292964128990
C            6.61313018124621       -7.12903839424171        0.36978460593448
C            8.01843734734386       -7.11104323894745        0.55462921270256
C            8.68405528543248       -5.91010104571089        0.68662303571012
C            7.97264851861633       -4.71335246044180        0.63785930844167
C            8.64136787700581       -3.48458293046211        0.76457713847655
C            9.11416155616762       -2.36146124603113        0.85755603961645
C            9.55134982833347       -1.03627584405887        0.94381042862896
C            9.40258009644924       -0.15760578604885       -0.11750244677991
F            8.85663649559884       -0.56218631130634       -1.27881672795924
C            9.81530580457491        1.15900798975967        0.02006538611804
F            9.65967172676518        1.96543215784250       -1.04594800473518
N           10.35194461482321        1.64707473796651        1.12896348919215
C           10.48625084967999        0.81108328402408        2.14839101473689
F           11.02390208933679        1.25821088255961        3.29812119906010
C           10.10536381985836       -0.52162063907675        2.10470584565409
F           10.28251629394618       -1.29689569464593        3.18980449164587
O            8.50608590331057       -8.40324636986559        0.56739871340179
C            7.35284578212415       -9.25903635458327        0.38610168513495
C            7.52661610177154      -10.10213293156053       -0.90998944459558
C            6.34322736651536      -11.06826935981074       -1.09179966482431
C            6.16774735763679      -11.98031682152334        0.14107923746623
C            6.00775207508350      -11.14837750059459        1.43118092224441
C            7.19168435395388      -10.18571985723161        1.62536770381494
O            6.17169528364354       -8.43326689201407        0.25804903396687
C            3.55561677515633       -0.85579946455439       -0.19018373103569
F            2.78912383405928       -1.84172622903828       -0.69056409760136
H            4.83923899221074       -5.97133709168736        0.18118086306353
H            9.75057151134403       -5.90730729777304        0.82491039962567
H            8.47450443397269      -10.64784174044512       -0.85851992832375
H            7.61054437160500       -9.41328986692349       -1.75834362429536
H            6.46812292821963      -11.66757806407837       -2.00491651078417
H            5.42734512844272      -10.48119370488554       -1.23968123955066
H            7.04270191215780      -12.63533862247895        0.23689005020882
H            5.30858807382817      -12.65269396768931        0.00548954514784
H            5.89173294422879      -11.80354616149553        2.30630578580705
H            5.08201097175558      -10.56133518050084        1.36926370965667
H            8.12392876108608      -10.73771474221810        1.78379407549279
H            7.05002852282484       -9.55434687999904        2.50997141056770
