34
 energy: -7.399821961069 gnorm: 0.000876255020 xtb: 6.5.0 (97a52f5)
F            0.72655479496598       -1.49487230810296       -1.12122696952107
C            1.93656425759144       -1.16453302065570       -0.63438744178381
N            2.11237437774890        0.03243927106152       -0.09510926727186
C            3.31656661983252        0.30100545235422        0.38777454051240
F            3.54575486633579        1.50419041100499        0.94390581393737
C            4.37578052574006       -0.59298761106095        0.35260390383237
F            5.56063223935094       -0.23697819161272        0.87959135766854
C            4.19766848783778       -1.84077485492212       -0.22140260746848
C            5.21485181309230       -2.80220655095352       -0.26036217504575
C            6.01898767548081       -3.72184601281646       -0.26835761574960
C            6.80496247341871       -4.89088609671713       -0.23771576766788
C            8.17671031427089       -4.84203376696231       -0.45126182614626
C            8.93537318589417       -5.99069288834089       -0.41517818184404
C            8.33545727579811       -7.20809695233817       -0.16395708298452
C            6.97666964092971       -7.27728304193122        0.04871152234173
C            6.19409910348583       -6.13015980837196        0.01469634174246
C            4.80235777594025       -6.18823053262297        0.22701134586419
C            3.59568628711661       -6.08489813374437        0.38712852908104
C            2.22874472588635       -5.82745969050729        0.54790518347266
C            1.24924689624809       -6.66500071575094        0.04061356875160
F            1.57506054486932       -7.79726635933887       -0.60762805571608
C           -0.08662007034473       -6.33122826300126        0.20271655688961
F           -0.99803051572719       -7.18127192308769       -0.30325729172471
N           -0.50007529209433       -5.23453165500462        0.82049406295887
C            0.43507755549143       -4.42796096658874        1.29934340230089
F            0.06839249735785       -3.28969734784456        1.91590989614806
C            1.79345786875263       -4.68113393631112        1.19299038621537
F            2.67146698471753       -3.80236246996810        1.70895926043011
C            2.93704154082730       -2.11932395678517       -0.72421906306416
F            2.66543087023541       -3.30953248197711       -1.28913729729280
H            8.64159949480643       -3.88803804060774       -0.64659705728239
H           10.00141055550457       -5.93906505883612       -0.58254892287263
H            8.93295573865162       -8.10753300560612       -0.13385271860833
H            6.50355889211455       -8.22703949056182        0.24480366937029
