32
 energy: -7.042377245718 gnorm: 0.000715008346 xtb: 6.5.0 (97a52f5)
F            0.73459880934208       -1.36875487037643       -0.26269248285572
C            2.03084778452480       -1.01148687937593       -0.31515573706558
N            2.34238611159185        0.24761539384979       -0.58387174298875
C            3.63209930906294        0.54144552795933       -0.65884457159447
F            3.99851652827891        1.80678924086606       -0.93229663223257
C            4.64454804804388       -0.38613012044622       -0.47024203221858
F            5.92699136120303        0.00244670056978       -0.58296637647556
C            4.32145667475453       -1.70040974293194       -0.17515614626256
C            5.29424282555964       -2.69325083244359       -0.00848607686391
C            6.06651074416656       -3.63687097277725        0.08393386707526
C            6.85519016977700       -4.80492641478844        0.11357497805466
N            8.04188609442432       -4.75871448692182        0.70285858985535
C            8.69673236557225       -5.89791359064008        0.67751710907611
C            8.20727282099456       -7.04174264775923        0.09630033789794
N            7.03474593497558       -7.11245681666752       -0.49330763073092
C            6.35433451171222       -5.97462939715411       -0.48002752042604
C            5.08130562058448       -5.93877381735786       -1.08458167301772
C            3.97094823525886       -5.78763597695628       -1.57405959914714
C            2.70902287699922       -5.48855184468251       -2.10126551608752
C            1.66405350530335       -6.39759480785066       -2.08871262206832
F            1.82822517624718       -7.63326292481519       -1.58401834349361
C            0.42992641964714       -6.02815076906682       -2.59996003763548
F           -0.54690457168390       -6.95295083437783       -2.58155453536515
N            0.17060302687381       -4.82956035372058       -3.10130635946279
C            1.16525989030187       -3.95497195399473       -3.10429417291067
F            0.94320805987050       -2.71186520790833       -3.56878407623007
C            2.43611681286352       -4.23760067222542       -2.63084834043067
F            3.38690118800583       -3.28760385282145       -2.68160395736241
C            2.97182871309572       -2.00514338975933       -0.09948183926533
F            2.56133869989509       -3.26037480680374        0.15628111036463
H            9.67271754529931       -5.89967431566258        1.14944883937004
H            8.79419870697941       -7.95312456287491        0.10576319058262
