63
 energy: -10.547713560317 gnorm: 0.000657807196 xtb: 6.5.0 (97a52f5)
I           -1.32823571876558       -0.20647872484671        0.37771104238595
C            0.73953715439411       -0.11073635344969        0.21362340071076
C            1.46825384254197       -1.26861262062915        0.02877202497678
C            2.84103203030356       -1.20998642935052       -0.08480231703643
C            3.52050052291841        0.01983833187882       -0.01494259141615
C            4.98702540472898        0.09144290177023       -0.14100900321581
C            5.66137445328637       -0.49231898940839       -1.25756275215762
C            4.97192197285733       -1.12342360637318       -2.30601181047021
C            5.63286332958071       -1.67001079487774       -3.37208247586437
C            7.03141093294990       -1.61107743162553       -3.46283891448590
N            7.71274229110974       -2.17902667472343       -4.56312335676001
C            7.24962260502075       -3.42071545736068       -5.22718891406862
C            8.17446688481513       -4.59649783420359       -4.88696183046803
C            9.64347059608058       -4.25936375905125       -5.20081373514865
C           10.06463117629912       -2.94374443784723       -4.52339421454529
C            9.10316680002298       -1.81667506906318       -4.90989750214608
C            7.72262426729507       -0.96278824546795       -2.44193900162889
C            7.07477074785341       -0.39559661760496       -1.35264750198975
O            7.84077068670752        0.25638442226743       -0.39928143489555
C            7.18855292949395        0.82559820523206        0.68298806978723
C            7.95100203725543        1.47477372306638        1.64480761708785
C            7.38394027133588        2.04196220427393        2.78365369366584
N            8.18203857730875        2.69684521417211        3.74947367124181
C            7.89279025290152        2.62364545599360        5.20084592786572
C            8.95043768653000        1.77911938240734        5.92300992737573
C           10.37120468611826        2.28746677548033        5.61921998100615
C           10.61257139871809        2.37956465006268        4.10252930527974
C            9.52539761158786        3.23030422594553        3.43973871610526
C            5.99518890420579        1.93449281779764        2.94795839984186
C            5.22102424578325        1.30787868688281        2.00982091299334
C            5.77977794880767        0.75404948538442        0.84606018165287
C            2.74990513979050        1.18130449026464        0.17593900314733
C            1.37755450936194        1.11125099100023        0.28739654832116
H            0.95163084744231       -2.21477294507152       -0.02192579204102
H            3.41146434564824       -2.11460835020408       -0.20294186855774
H            3.89788799666765       -1.15396951558076       -2.28010678209048
H            5.07143327875224       -2.11325528600576       -4.17436757208900
H            7.23145269026493       -3.24275804045792       -6.30645456425240
H            6.21985436322714       -3.63714782773905       -4.93093786928177
H            7.86049243059213       -5.50289228982680       -5.42188453032334
H            8.07710994693267       -4.83170911164244       -3.82066702442558
H            9.77121353985449       -4.16682931611074       -6.28578552418664
H           10.30458156474953       -5.08159888229387       -4.89521002214645
H           11.10016006063634       -2.68085140725211       -4.77791063726654
H           10.04678399922234       -3.07483149107752       -3.43521883881709
H            9.14035982657706       -1.64269396729418       -5.98964132737850
H            9.36992097112862       -0.86283191011707       -4.44564137778743
H            8.79317477447303       -0.90695377545124       -2.46687000450446
H            9.01449215664593        1.49504471997075        1.50767403986378
H            6.89269290909264        2.21023380291029        5.35617370974528
H            7.87420744769309        3.64321900519470        5.59672764883854
H            8.86133462540929        0.73691206134814        5.59467701067577
H            8.76422113281915        1.76768147257309        7.00531034436332
H           11.12384380093146        1.64265443937367        6.09304491142044
H           10.50679628084094        3.27788067423211        6.06980799427878
H           10.59611256712631        1.37231251884071        3.67040531926220
H           11.61080283657801        2.78306851846172        3.88613633902062
H            9.65657476654266        3.30091055105089        2.35590553420468
H            9.56851025469948        4.25796234655794        3.81358988152003
H            5.53092530166717        2.38388614680059        3.80703872032575
H            4.16150155634994        1.22487555911838        2.17044650892637
H            3.24520835136481        2.13600281809477        0.20570928465896
H            0.79011919687448        2.00585056359843        0.42656542089940
