49
 energy: -10.702653902442 gnorm: 0.000800211329 xtb: 6.5.0 (97a52f5)
I            0.67235128684803       -1.69464447140468       -2.82171734854725
C            1.89700813283558       -0.03179635679728       -2.53132886964809
C            3.18221676996449       -0.19722925229707       -2.05710349108607
C            3.99269428196822        0.90297834138272       -1.85422351593063
C            3.52890261574225        2.19324999998584       -2.12401568306627
C            4.38052659791842        3.36822655856646       -1.88868978821957
C            5.20739125087681        3.48243197479041       -0.74700370921495
C            5.30356114657057        2.70581538102097        0.45393298213692
C            6.02697262398706        3.42089028908410        1.37720250343241
C            6.40310132572358        4.67005413459157        0.78659058555787
N            5.95605007312956        4.60881217757387       -0.48505413542808
B            6.11078058497690        5.84418645134143       -1.36468281932368
O            5.72819303848735        7.03540900553871       -0.55334338482807
C            6.38068728265575        7.11082411462945        0.64717129889349
C            6.63561076036279        8.35920154150572        1.23815114588377
C            7.25997239591461        8.44874185757830        2.45298959672993
C            7.64370734975820        7.29912008051730        3.13733216483932
C            7.39946858026466        6.05966500353746        2.60088205217781
C            6.78477902470969        5.93546939422042        1.35492299297010
O            7.49123152854747        6.10573832298826       -1.86371921952264
C            7.54628771870778        7.05927173303447       -2.84385592740771
C            8.69349093847601        7.85566022646023       -2.99410852054416
C            8.77329858898585        8.79506507327248       -3.98638901900337
C            7.72126728028912        8.97035034308567       -4.88064533053859
C            6.58941555961735        8.20070005361187       -4.77787792026365
C            6.46848379038901        7.25014372780196       -3.76424001005603
C            5.35692969337122        6.34301581246697       -3.66232004906132
C            4.46716788920947        5.78439530827656       -4.63506799720559
C            3.89898271871889        4.65190714781862       -4.10377671308949
C            4.41293638040465        4.46675473327356       -2.77878791394387
N            5.22095639350591        5.56260757205352       -2.57053054705064
C            2.22645223644662        2.33645439681514       -2.60968155903510
C            1.42015960975984        1.23266748017508       -2.80958613200904
H            3.54337548936780       -1.19257915897867       -1.84874698147884
H            5.00132890141022        0.77191885865127       -1.50346801136784
H            4.81454213228160        1.76303046724177        0.62913920038473
H            6.20128296946466        3.13797974926823        2.40167225410111
H            6.32983037009571        9.24462241832790        0.71003906902078
H            7.45132914730985        9.41614593823790        2.88738304773530
H            8.12594627280477        7.38431461846230        4.09718462288098
H            7.67889589814900        5.16967422731825        3.13740809425897
H            9.50683167147564        7.71164607052616       -2.30554668021953
H            9.65973681735721        9.40030047070744       -4.08145224311899
H            7.80077108456358        9.70793442836484       -5.66209435486136
H            5.78255289658493        8.32271411052296       -5.47930835094537
H            4.34148234439808        6.14264299527350       -5.64293629605989
H            3.24824642750115        3.96963905805258       -4.62328047554449
H            1.84530896707040        3.32386644878358       -2.80248691995833
H            0.41184316103760        1.34690114274760       -3.17687169343133
