116
 energy: -25.350118244063 gnorm: 0.000761511935 xtb: 6.5.0 (97a52f5)
N            1.46675818746242        0.00676089281368       -0.08121857957315
C            2.62374595152965       -0.05847434207582        0.02283724926191
C            4.01566650090948       -0.12468513889652        0.10949167602287
C            4.64621293148505       -0.56699164375608        1.25557928146009
C            6.03561350286066       -0.49323307704775        1.37250016922197
N            7.19061883044470       -0.44612839773381        1.50458178500625
C            3.95394718494360       -1.09004454268371        2.44825212540407
C            4.63940069143647       -1.17027488136899        3.66540939635189
C            4.04690570537581       -1.67182928244644        4.79820489480406
C            2.73198537481405       -2.13643822289388        4.77388738099477
C            2.08009812725456       -2.66737998418262        5.98864136354361
C            2.35305646951148       -2.12850915375898        7.24738522757022
C            1.72572688814466       -2.60559498139712        8.37223063508996
C            0.79021970232232       -3.64009195253060        8.29146130577136
C            0.10743643545399       -4.16204511755774        9.49339647937138
C           -0.36804468756626       -3.31576604576511       10.48481766505772
C           -0.79830570068874       -3.84207216726074       11.79949387414119
C           -1.96984905416305       -3.37873093018764       12.40039388099517
C           -2.37029139396330       -3.85658066801537       13.62794281778647
C           -1.60838552684387       -4.80159564596179       14.28585078854645
C           -0.44047478387127       -5.26490504245482       13.71360663639835
C           -0.03675598931973       -4.78955127268727       12.48637295917157
C           -0.48300189453806       -1.85648558041531       10.26775051289330
C           -0.12156222562038       -0.95972649319593       11.27452112121620
C           -0.24553898097567        0.39881540133474       11.08848548599318
C           -0.73747609290900        0.89316489867900        9.89688777297783
C           -1.11029155208721        0.02299387744028        8.89195422011982
C           -0.98957999497729       -1.33606382924785        9.07506985213136
C           -0.06332278634468       -5.62985349190869        9.59444504864422
C           -1.28444747375602       -6.19304576143019        9.96883438058977
C           -1.43807101263889       -7.55899273698691       10.04501741650187
C           -0.37989691759289       -8.39275065082731        9.74312401568756
C            0.83334269923697       -7.85560190702383        9.36117252620512
C            0.99089812866555       -6.48990566260851        9.28423491869105
C            0.53348554110400       -4.19270386838511        7.03491158244216
C            1.16024193800635       -3.71494516270014        5.91023763277858
C            2.04493178666171       -2.07236376887831        3.56187991121793
C            2.63814491923100       -1.56099098054355        2.43444931708823
C            4.72481144233864        0.35461759326750       -1.09335759120455
C            6.00428633932803       -0.07784556015814       -1.45386411468268
C            6.60894054678978        0.35620194736501       -2.60865281486226
C            5.96693060044454        1.24912829171053       -3.46757351491302
C            6.60908309634762        1.71598311432985       -4.71346611795583
C            7.43440622110171        0.87367639115508       -5.46098742810711
C            8.00841670424744        1.30301753535049       -6.63280064440407
C            7.77869558913250        2.59331611242847       -7.11718261758177
C            8.38787543188219        3.06978099948467       -8.37614677172057
C            8.45636273797778        2.26393140329864       -9.50339645787778
C            9.29407806770225        2.64108393052724      -10.66399000472117
C            8.80457547136221        2.51039901319456      -11.96457552419623
C            9.58222811184590        2.84910760096276      -13.04907998436045
C           10.86656640459397        3.31963012258147      -12.86079762456179
C           11.37314302986458        3.44697493943168      -11.58278470632839
C           10.59871292690598        3.10922661190489      -10.49591164145144
C            7.68437457240969        1.00549059278808       -9.60459858730329
C            8.26572419768596       -0.13967446223490      -10.15148799372504
C            7.54886251491883       -1.30941795768102      -10.26719484353194
C            6.23511152420916       -1.36154772544604       -9.84573763430218
C            5.63787386322261       -0.23700543080551       -9.31207509558719
C            6.35085764000727        0.93489080610531       -9.19634116098409
C            8.91212612392875        4.45511310762643       -8.39563322874228
C            8.62642973429603        5.32275463253159       -9.45120486243626
C            9.10792945110662        6.61243981190011       -9.45498178976287
C            9.87816825910856        7.06702242838267       -8.40327172135165
C           10.16278503725733        6.22787518652838       -7.34437359936253
C            9.68351691787282        4.93711195494908       -7.33735681676680
C            6.97017326136455        3.44180229702127       -6.35797405504483
C            6.39611274743006        3.01217029958126       -5.18685225296298
C            4.68788489847316        1.68111971446087       -3.11641808196084
C            4.08415708918412        1.24031407005087       -1.96539672858308
H            5.65894192078170       -0.83052572406767        3.70710151256847
H            4.60557431661686       -1.72733831026614        5.71629923115656
H            3.05042813670159       -1.31311139557650        7.32876027746516
H            1.94796542121346       -2.18033590416458        9.33539771927750
H           -2.56256750756668       -2.64285714155249       11.88497068344464
H           -3.28034197945303       -3.49227534563830       14.07573354059500
H           -1.92379430084638       -5.17551648673730       15.24616656462188
H            0.15626489538946       -6.00010538609860       14.22820589748302
H            0.87618407041395       -5.14590243395193       12.04178549860501
H            0.26116783644909       -1.34696996409665       12.20295882717976
H            0.04092228548609        1.07755216483197       11.87506900593977
H           -0.83341093880229        1.95685708541921        9.75242660995067
H           -1.49707636042862        0.40804992861972        7.96267767490072
H           -1.28740338031850       -2.01521517657035        8.29523024116054
H           -2.10999461158297       -5.54182463427683       10.19814495239181
H           -2.38614457989981       -7.97766464583824       10.34053917896299
H           -0.50158728187899       -9.46188948326688        9.80347611418048
H            1.65849298000391       -8.50631425908214        9.12217477795235
H            1.93535841690213       -6.06825744653475        8.98633592818527
H           -0.17492089646212       -4.99927589334124        6.95775958956315
H            0.95287188370013       -4.15998745501108        4.95273500967650
H            1.02306659232146       -2.40785839425353        3.52239696320347
H            2.06916150469886       -1.52045865517001        1.52595797093937
H            6.52227374937655       -0.77288730323575       -0.81938372035753
H            7.60118591833904        0.01813945612255       -2.85224693522170
H            7.60267092015293       -0.13299926313870       -5.12027816006351
H            8.64321476042112        0.64182691470925       -7.19651963965269
H            7.80233193282433        2.14544890452806      -12.10864048513753
H            9.18739772642985        2.74708613179152      -14.04664404147633
H           11.47371307038653        3.58503506917866      -13.71075383531251
H           12.37640928278951        3.81186994234737      -11.43537563923869
H           10.99399216970268        3.20363636007732       -9.49945460900249
H            9.28982834580528       -0.09679997237801      -10.47992305630061
H            8.01419829929332       -2.18578620578520      -10.68779057231299
H            5.67562071895758       -2.27825756445938       -9.93587358599876
H            4.61151880665045       -0.27627411659234       -8.98571557692722
H            5.88399198420717        1.81387296216054       -8.78707938034907
H            8.02086896199423        4.96846030528998      -10.26726866164476
H            8.88282584669747        7.26761939569616      -10.28052109468696
H           10.25494303249917        8.07674591196504       -8.40782678487012
H           10.76136277914634        6.58350877818470       -6.52179627341927
H            9.90460197690584        4.28057820813333       -6.51359215304029
H            6.79377926831557        4.44311365209724       -6.71088957338029
H            5.78071879305655        3.68462152950236       -4.61503068531527
H            4.16204774945164        2.35172038573714       -3.77362769959426
H            3.09238349983294        1.57787341666023       -1.72231032230410
