46
 energy: -10.435672672578 gnorm: 0.000225209394 xtb: 6.5.0 (97a52f5)
N            1.22456375327073        0.19040104959180        0.12701053395670
C            2.38155991242346        0.07883103317130        0.09128492792367
C            3.77309791763077       -0.03076397045023        0.04749083502915
C            4.40304417286314       -1.17119669252471        0.49701038756339
C            5.79250741853210       -1.21256024615959        0.62965257363879
N            6.94795029424689       -1.26292601143347        0.75072312299065
C            3.67646956997447       -2.37763947672986        0.93608560927827
C            4.20213750098493       -3.18126902174837        1.95094095738613
C            3.55527715509436       -4.31743125508609        2.36926884341136
C            2.35729436469453       -4.71811425184722        1.77840613686658
C            1.66093524666543       -5.94303698845720        2.22403822770795
C            1.06817874130294       -6.81981915599879        1.32678118141047
C            0.43528704033055       -7.94402267334010        1.79584418531217
N            0.33263024027814       -8.27451356586320        3.07281037914354
C            0.89845478082343       -7.43354724915689        3.92307406722827
C            1.55993638905996       -6.28521312209444        3.56491121062033
C            1.83850054274525       -3.93071684618843        0.75085511665477
C            2.48146201221956       -2.78890501320536        0.34114911208503
C            4.50100772625046        1.16172645998942       -0.42633652854501
C            5.71308105713373        1.07426271244493       -1.11519991394804
C            6.35942526424011        2.19926409866685       -1.56445476774654
C            5.82675824754676        3.46955193564626       -1.34607189437406
C            6.52737672081575        4.68140272681783       -1.81946965479959
C            6.58866278968700        5.83939631451018       -1.05753228727269
C            7.25482922063929        6.93650291731639       -1.54428545507087
N            7.86163267458203        6.99080550688331       -2.71867435509141
C            7.79771330920400        5.88419984413680       -3.44098825091020
C            7.16366443592260        4.73053760826790       -3.05153983728400
C            4.61079095171151        3.56182353560910       -0.66958989818260
C            3.96143271250675        2.43532760792333       -0.22981649514308
H            5.13182021805435       -2.89303607578674        2.40946138590031
H            3.98146865122826       -4.92307666226729        3.15019844817688
H            1.12468088737737       -6.62223004998076        0.27041560778259
H           -0.01837033254769       -8.62538801982976        1.09103273750791
H            0.81745917820491       -7.68980081977486        4.96927709293369
H            1.98368617871192       -5.63935965489177        4.31423923199048
H            0.91100251213831       -4.22056116990171        0.28817751329908
H            2.06726234935168       -2.20346334020432       -0.46036009224280
H            6.13853256035876        0.10485128077325       -1.30490754162875
H            7.30053664091341        2.10869040669168       -2.07864940330126
H            6.13071137922442        5.86308000209184       -0.08391998650447
H            7.30441836428008        7.83167061355135       -0.94179651905120
H            8.28584786926311        5.91709281733092       -4.40404019082351
H            7.14015892298721        3.87175269341507       -3.69970149724759
H            4.17320552048067        4.53203941240678       -0.51008984934504
H            3.01906693659176        2.52435075568773        0.28138499271702
