68
 energy: -15.589573686550 gnorm: 0.000944551594 xtb: 6.5.0 (97a52f5)
N            1.30996099860135       -0.25892471968991        0.54296825626228
C            2.41095935074036       -0.20121733915843        0.17145071904454
C            3.73675453169555       -0.16814249547080       -0.26119266789615
C            4.28611676430155        0.99093551423768       -0.77909260838768
C            5.60867432501156        1.02022839807699       -1.22136819779458
N            6.70815807913421        1.08140798778837       -1.59730565364640
C            3.58905144512931        2.28030063209715       -0.93937259756994
C            4.27474076545121        3.35529751260938       -1.52179060399956
C            3.68640747577464        4.58021996041455       -1.70610198674512
C            2.37124851656056        4.79950188901473       -1.31339634256139
N            1.74745150455715        6.07700446978155       -1.50839666904853
C            0.47347464164579        6.30330306860967       -2.07349981627452
C           -0.46822468461859        5.41525026345833       -2.59236343682772
C           -1.64139792680853        5.91706614487166       -3.09995499639572
C           -1.89539372323990        7.29086156060151       -3.10413951681399
C           -0.97498770902618        8.18093209166757       -2.60563930359449
C            0.22271882547000        7.68572767093182       -2.08884168537675
C            1.37743403694299        8.33805821492431       -1.51820877957848
C            1.67454891959294        9.68034069068989       -1.27988831064833
C            2.87944430748579        9.99559651571589       -0.69962190502481
C            3.79147064246017        8.99654220728866       -0.35014371278344
C            3.51280713545661        7.67151345642499       -0.57931593554704
C            2.29752534662692        7.33356245080411       -1.17383039353684
C            1.67429159097106        3.74759845701252       -0.72980704650557
C            2.26689519117873        2.52384779444148       -0.54919966533133
C            4.43214351722147       -1.45992944602141       -0.11247606666694
C            5.78548447019176       -1.67190462886941       -0.40071459742735
C            6.37482189053527       -2.89982544084615       -0.23878246880189
C            5.64184896257915       -3.98971394979558        0.21680067556000
N            6.25505050821841       -5.27817857177594        0.36630869690322
C            6.12890334811671       -6.14107575556986        1.47695270274268
C            5.45462103564407       -5.98304746079268        2.68734844237567
C            5.51350175700730       -6.99417038108834        3.61476019239101
C            6.23619479969169       -8.16279184688710        3.36194841873557
C            6.91369243321377       -8.33190553927378        2.17864298111564
C            6.86393189969666       -7.31237546320661        1.22747046460536
C            7.46359448215151       -7.17347415167251       -0.07843408970105
C            8.27683570472101       -8.02038225064051       -0.83221764214044
C            8.68580801459879       -7.60575464323159       -2.07666742445178
C            8.29444423605028       -6.36444773782136       -2.58454790168834
C            7.49365157468787       -5.52106516505038       -1.85429159815423
C            7.07707704602389       -5.92120525658013       -0.58493930638125
C            4.29689461553355       -3.80040390968433        0.51247800623495
C            3.71331238879941       -2.56953301539514        0.35335407518043
H            5.29263540800150        3.21042483598649       -1.83620945295900
H            4.22964764197318        5.38206792924324       -2.17458519126508
H           -0.26245494167447        4.36017032768019       -2.59934240962939
H           -2.37754910677730        5.24172537275470       -3.50392292329504
H           -2.82515275899390        7.65690772586380       -3.50735636562973
H           -1.16049108417077        9.24041424550319       -2.61023824500850
H            0.96530731271768       10.44314304094901       -1.54817670400046
H            3.12392716191392       11.02743160876022       -0.50829752060649
H            4.72725679715113        9.27114666902897        0.10820322775336
H            4.20526621979909        6.89851763819524       -0.29918478892972
H            0.66169949228184        3.91490656549824       -0.40655870499631
H            1.68827254304638        1.74494861616237       -0.09594371193936
H            6.39180607761292       -0.86461725140534       -0.75822193463739
H            7.42162348593086       -3.03253963813553       -0.44947966512519
H            4.91241740242707       -5.07590229075769        2.88394781971146
H            4.99692189910436       -6.88444846101700        4.55405486207826
H            6.26481331239683       -8.94032484899477        4.10736473772564
H            7.47687712896973       -9.22611335063365        1.97832464665758
H            8.56884487573128       -8.97689464876775       -0.43637270985095
H            9.31450567134728       -8.24770070000250       -2.67137033507975
H            8.62464012633132       -6.06610763210988       -3.56595799496329
H            7.17689091833356       -4.57230136436355       -2.24807558176399
H            3.71540629407801       -4.64062747720553        0.84916492408670
H            2.67099508664713       -2.44943469514829        0.58791331786605
