94
 energy: -18.890788836352 gnorm: 0.000355454067 xtb: 6.5.0 (97a52f5)
C            1.48463390457798        0.52720433599469       -0.38519635829801
C            2.92187565008661        0.00962824671540       -0.18691809296388
C            2.96426343745688       -1.47653753879889       -0.59123724377702
C            3.88297355253433        0.79137969710618       -1.10158897935129
C            3.33672773644352        0.21462753290078        1.27830998825127
C            3.71597742171110       -0.83420029072266        2.10089402776451
C            4.09549890033490       -0.62399179402929        3.43212167695052
C            4.48911987576290       -1.69121226561896        4.28048698533306
C            4.87458939184414       -1.49482451127231        5.58157030158573
N            5.20322321625351       -2.62522054233074        6.39994731783470
C            4.72397805921572       -2.71788663317091        7.75245873085729
C            5.52958030216950       -3.24968188754166        8.75682704210855
C            5.08945043606555       -3.29207862121063       10.06082769637093
C            3.83740483450773       -2.80649999011364       10.38587138890229
C            3.02515298485516       -2.27963005545195        9.40015174414741
C            3.46262652846568       -2.23618447495383        8.09534086609334
C            5.91077292983889       -3.73726536120101        5.82843856297993
C            5.60884100954109       -5.04498093508453        6.20135041038761
C            6.27949465949566       -6.10916108658473        5.64100260426111
C            7.26433416718565       -5.88791041744753        4.69760388159729
C            7.57666176899743       -4.59676638458500        4.31765890992812
C            6.90740285461679       -3.53130134881508        4.87733967245738
C            4.92232565832058       -0.14594256047188        6.10602941999321
C            5.39103103982992        0.14103095589138        7.38706468249720
C            5.41910809394699        1.43098289120164        7.90225862456949
C            5.90560721924721        1.72584561649172        9.32983280895551
C            7.11446434012900        2.67736197474092        9.26991241750432
C            4.76581562398339        2.38298690308432       10.13001442158185
C            6.33311082590953        0.44023557265470       10.06536453106048
C            4.98234540111637        2.46978331178478        7.09749942896190
C            4.52877736058133        2.25078242801620        5.79181524368204
C            4.08441107582760        3.31193598680989        4.96102788853291
C            3.64288310877800        3.10652878139468        3.67953245748395
N            3.14233410554167        4.21167824723697        2.91490976498082
C            3.80420820792926        5.48429534543649        2.99129681315297
C            3.07761593522254        6.67263319964908        2.98814341828713
C            3.71794058699327        7.88868738818178        3.07550757437338
C            5.09549490626989        7.94112187303444        3.16810133169727
C            5.83068515316010        6.77134302697017        3.17313400850541
C            5.19211699466568        5.55443150211889        3.08595788041682
C            1.91383419807251        4.09252402247820        2.17823039804666
C            1.75335343515508        4.73015481552072        0.95028446757193
C            0.59031101831648        4.58078200626046        0.22835544636942
C           -0.43339534127603        3.79289786322783        0.71861842110180
C           -0.28987305445299        3.15479497907335        1.93558032689419
C            0.87179709828273        3.30313730667150        2.65955292026993
C            3.66989059631943        1.76771576686583        3.13104200445903
C            3.32807613707639        1.49821667588700        1.80760220438948
C            4.08104732650514        0.69264981525302        3.95062001067580
C            4.50425883679162        0.92833048187623        5.28804987037421
H            1.15334693094280        0.37588949511789       -1.41223434889626
H            1.41301196753824        1.59178801777446       -0.16714215808349
H            0.79230906509531        0.00407181431883        0.27386925327475
H            2.66176467304469       -1.60255669378247       -1.63065842792425
H            2.28728356151883       -2.06958034764619        0.02315158128965
H            3.97043371620373       -1.88246267913846       -0.48961645312593
H            3.62338899641620        0.65104013147290       -2.15064135266051
H            4.90941667861754        0.45399133558635       -0.95991408376370
H            3.84956189166035        1.85956234498148       -0.89095191585969
H            3.73176555345533       -1.83939341946007        1.72294589861179
H            4.46211145743559       -2.69333091122807        3.89465741174014
H            6.50983293548707       -3.61170862123220        8.49973614964731
H            5.72475169430649       -3.70017334266031       10.83012482308871
H            3.49565896593994       -2.83649082630716       11.40773511648672
H            2.04946561852494       -1.89780428517846        9.65346472495390
H            2.83870442343754       -1.82023694635990        7.32355787574523
H            4.83359939916334       -5.21297436495424        6.92837726987688
H            6.03441571148209       -7.11615380094977        5.93756170432288
H            7.78782174370363       -6.72155354101879        4.25831360642241
H            8.34500221483581       -4.42310714469953        3.58179038275563
H            7.15014368949739       -2.52330208211981        4.58900090307298
H            5.73958836822014       -0.67484469643399        7.98775455942072
H            6.84939268217460        3.62583811432942        8.80453311602993
H            7.92409557185512        2.23456676105647        8.69029313912628
H            7.49242830995969        2.89092276488763       10.26950129659164
H            4.45963841190211        3.32731648059761        9.68188542538529
H            5.07563655069256        2.58610290825343       11.15488467637456
H            3.89412615347322        1.72991672032333       10.16445189025834
H            7.15638714667292       -0.05328553978628        9.54951562739652
H            5.50274758331593       -0.26101661030541       10.14305482812265
H            6.66766740900004        0.66670211648666       11.07749397792707
H            4.99363117562131        3.47605480629739        7.47482943440051
H            4.07052022297968        4.30936285553899        5.35956374852663
H            2.00434704065174        6.62647794715222        2.92714714245960
H            3.14331041638695        8.80074868586344        3.07354125917232
H            5.59588489268442        8.89336801805033        3.23732200398722
H            6.90543820528687        6.81116306205823        3.24597924929375
H            5.75958492797027        4.64003270182060        3.08508263264519
H            2.55964973870661        5.33089739217316        0.56689825345687
H            0.47979321132700        5.07682267825524       -0.72225509141066
H           -1.34199039685584        3.67403696620257        0.15097351686399
H           -1.08633556395156        2.53670825102981        2.31709439397525
H            0.99265698697709        2.80379038720664        3.60505994088735
H            3.04560055640180        2.31915124530710        1.17767709834291
