33
 energy: -7.116175533197 gnorm: 0.000458437872 xtb: 6.5.0 (97a52f5)
N            1.25537692626498       -0.08870305958730       -0.25555785109436
C            2.41402982824770       -0.02705459158152       -0.18398539221414
C            3.80512170669085        0.03844345183587       -0.08256721428123
C            4.42687391994324       -0.71409337380133        0.86279856102880
C            3.73510121028113       -1.58494584360654        1.75254124997712
C            4.34558247088829       -2.31325344365976        2.70629543208082
C            3.68379209839021       -3.20452210575261        3.63630852738063
C            4.44049548661347       -3.88455161884132        4.59527823422184
C            3.84277101104630       -4.73382299477349        5.49492539481296
C            2.47549446883131       -4.93178237488768        5.46648562658516
N            1.84120874549819       -5.83551227542863        6.42735626885231
O            2.54846077071076       -6.37906640456074        7.28793308930024
O            0.61907060424845       -6.02546184261519        6.34689401228227
C            1.71172859486638       -4.26992747461782        4.52387466643682
C            2.30207414563485       -3.41857816657571        3.62062494572822
C            4.53623633266840        0.94182285649638       -0.98412373565516
C            5.91981997981844        0.86765901921421       -1.15598536060543
C            6.57475406079474        1.73361434186621       -2.00276073316798
C            5.86865841075347        2.69171367613304       -2.70012492516621
C            4.50013476529616        2.77766043326002       -2.55239387898473
C            3.84292984872134        1.91245540025242       -1.70846183973316
H            5.49303233094559       -0.64303398872169        0.97411654054074
H            2.66853489570328       -1.64530879089266        1.64452531051596
H            5.41437786170707       -2.22835698754682        2.79496281758858
H            5.50618811978120       -3.73520174570174        4.62503645531049
H            4.42702306879669       -5.25559089628764        6.23391811865493
H            0.64764796252650       -4.43541887053585        4.51132435864780
H            1.68925086672500       -2.91574010353765        2.89446304393928
H            6.48354334706997        0.11268786465772       -0.63805495087720
H            7.64346861692148        1.66134042968739       -2.12384015388288
H            6.38462149702525        3.36927352584299       -3.36069819614902
H            3.94546090030749        3.52333681160826       -3.09845474097110
H            2.77509514627842        1.98044914266064       -1.59578368110558
