92
 energy: -19.764032012665 gnorm: 0.000913192126 xtb: 6.5.0 (97a52f5)
N            1.69928714467213       -0.11318975109588        1.09988844288933
C            2.76782971618300       -0.02016598452770        0.65145931386944
C            4.06994380350574        0.08200296280042        0.15488119364017
C            4.61115036853223       -0.96914016867723       -0.52509803881741
C            3.86556845987342       -2.14878421637522       -0.96149589000261
C            4.27918321712077       -3.41743094002944       -0.56157113470303
C            3.56726923002498       -4.56195531688256       -0.87508809234484
N            4.04117524611032       -5.83224242254722       -0.39676766691352
C            4.45344874352204       -5.94361045636900        0.97252457087655
C            5.56559528290348       -6.70097044816525        1.32939746926424
C            5.96024983487788       -6.78969976292274        2.64462903002134
C            5.25407418211259       -6.12295672108580        3.62595050939151
C            4.15216587911846       -5.36336283764657        3.28690331845565
C            3.75563171979225       -5.27219094460241        1.97259049837023
C            4.21364020691521       -6.94168452750208       -1.28887186120370
C            4.01237424688375       -8.24667398522456       -0.84730292524866
C            4.13451511333964       -9.30713138673871       -1.71526131235830
C            4.45588538434907       -9.08413234286172       -3.03913377309441
C            4.65545172644603       -7.79549303030872       -3.49264599006943
C            4.53551863318362       -6.73307836418705       -2.62667040106985
C            2.36638012242098       -4.45132255971139       -1.62732454477189
C            1.60409728805695       -5.64423398889250       -1.88003355598277
C            0.47847279947819       -5.81322159638340       -2.62476482884191
C           -0.15381796770771       -4.74499734455823       -3.25980047040749
N           -0.68608171865012       -3.85755126165630       -3.78863015527505
C           -0.11720819712486       -7.14776375796639       -2.78369301055196
C           -1.44532248411616       -7.27827952422361       -3.19245320321100
C           -2.02394875138119       -8.51596658847392       -3.34536504197611
C           -1.29386264950281       -9.66110781941027       -3.09973832373819
C           -1.91953881912433      -11.03895065942439       -3.28919390559954
F           -3.25875658698960      -10.91488526391186       -3.32538899431664
F           -1.46908153280505      -11.55358142580625       -4.44763033749624
F           -1.55363978868583      -11.82367403654242       -2.25942099967983
C            0.02623173948691       -9.55346985352391       -2.71320329254411
C            0.61033101315113       -8.31832632915319       -2.55683075948596
C            1.97860785290679       -3.18595357109411       -2.06396434037194
C            2.70299837239438       -2.04376036062042       -1.77413176282103
N            2.30704403428725       -0.80193385026516       -2.36707142941202
C            0.90835257856825       -0.53643267027334       -2.58787158290099
C            0.41951226318569       -0.33779892815195       -3.87565995620774
C           -0.92052469136828       -0.10780466294935       -4.08550562341404
C           -1.79266818935283       -0.07034872900533       -3.01557696697949
C           -1.31910057562029       -0.25723431779688       -1.73222666113139
C            0.01961454458495       -0.48473970696308       -1.51914268503403
C            3.26853666004271        0.10228147665795       -2.92981321281255
C            3.05225471210164        1.47611142489247       -2.87666590282671
C            3.97537117629373        2.35183397786891       -3.39948472166166
C            5.12602032534489        1.87125120535478       -3.99199453812777
C            5.34983155613355        0.51049128604952       -4.06100974092368
C            4.42971733709224       -0.36782149191743       -3.53651268794892
C            4.83811027769468        1.29835172672665        0.44350187396140
C            5.98962200079218        1.63002626873196       -0.27250509006820
C            6.68440894546536        2.78398114429752        0.00549905810579
C            6.25369416840535        3.63788957284953        1.00020324133652
C            7.01631838632908        4.92771211217301        1.28368137850849
F            8.32950413771201        4.70761729364267        1.09135637212833
F            6.57531890151086        5.87531070284124        0.43703230335137
F            6.78990291105067        5.30009885221062        2.55651396984302
C            5.10751821011821        3.33474194628308        1.70630701096321
C            4.40781798117495        2.18355069099420        1.43216880187197
H            5.66956798695953       -0.95459189635909       -0.72828756073923
H            5.16791879269547       -3.51101104764395        0.03457663234772
H            6.12339292979870       -7.20347099933015        0.55869379034833
H            6.82363119121862       -7.37811514592512        2.90878073497716
H            5.56406244624912       -6.19356029620072        4.65570259594040
H            3.60193765051958       -4.84107023464449        4.05252123474743
H            2.89617252766841       -4.68432392948842        1.70142428139330
H            3.74289428826587       -8.41323495988305        0.18092098737397
H            3.97944969723017      -10.31310315479490       -1.36109745339024
H            4.55156456358441       -9.91546584193412       -3.71823333611285
H            4.90544250356685       -7.62149656039413       -4.52634980781138
H            4.68982120600110       -5.72639006687295       -2.97345230905257
H            1.98683978963808       -6.52061930977332       -1.39490170329599
H           -2.01910565320599       -6.38919339107787       -3.38800658407735
H           -3.05067094971675       -8.61053467265008       -3.65708028120615
H            0.58991072461750      -10.45480460132764       -2.53959445772190
H            1.65106034649305       -8.26174266665045       -2.29357378146060
H            1.09986275805689       -3.06871321857704       -2.66785318726505
H            1.10470446464248       -0.38360627242194       -4.70401826022120
H           -1.29123822028004        0.03593335554613       -5.08731239227137
H           -2.84272902055230        0.10644788791890       -3.18207226261105
H           -1.99797561126331       -0.21752844158376       -0.89593867947660
H            0.40842438804632       -0.57310569279371       -0.52059320751739
H            2.15797561797023        1.84220866769629       -2.40385206951941
H            3.80107561469870        3.41390398547193       -3.34471462842115
H            5.84763864366868        2.55797442831131       -4.40323145749325
H            6.24586823121466        0.13599503060166       -4.52810122889493
H            4.59479072402961       -1.42943875971197       -3.59226244820867
H            6.31938504279742        0.99463588735206       -1.07499724105546
H            7.57167960496137        3.03924602351215       -0.54921406889661
H            4.77430834792468        4.01317793638001        2.47355440193991
H            3.51261288960436        1.95388921929962        1.98308080316460
