86
 energy: -18.863862676571 gnorm: 0.000696556098 xtb: 6.5.0 (97a52f5)
N            1.62973395856138        1.19302783560053       -0.43487722367619
C            2.64553794508545        0.66279981018334       -0.23782393665179
C            3.89004904387420        0.06347682812398       -0.02237540259391
C            4.52350673783023        0.24510189100112        1.17238444296759
C            3.90961288258356        0.85957405606968        2.35051220155410
C            4.46028724102767        2.01260946206192        2.90478574640698
C            3.86605500879087        2.68312705692437        3.95947602427057
N            4.48096746128804        3.88297902311615        4.45886908064255
C            4.95492210386665        4.86037792231414        3.52166119200267
C            6.14023469440628        5.55553320895315        3.74602396227815
C            6.59453874372144        6.48083827556222        2.83412762857432
C            5.87548513350756        6.72776984766623        1.68138007608504
C            4.70009879399293        6.04344816868697        1.44258211880728
C            4.24387458906436        5.11736150380690        2.35254700905140
C            4.72392572159945        4.06154954027074        5.86149192699300
C            4.65902156343106        5.32712168465419        6.43907764763301
C            4.84161755533095        5.49059093123048        7.79314378925114
C            5.09020328620266        4.39448602404015        8.59521364131676
C            5.15627725199130        3.13291061384951        8.03747514251612
C            4.97502498750051        2.96655893541177        6.68354574000077
C            2.64651394357262        2.19006879173298        4.49985659367793
C            1.99908437871599        2.95224556171308        5.53300753358410
C            0.88535304667158        2.66303807234974        6.25894352085945
C            0.15256462121968        1.49277789708533        6.06147885630111
N           -0.46339290179560        0.51935174826743        5.90656365160301
C            0.41144547109483        3.59585710818934        7.29186842786518
C           -0.90849105600208        3.53388264739633        7.74214466357161
C           -1.37617041338542        4.40353058325130        8.69830250245249
C           -0.54070518663927        5.36150670480796        9.24585394983202
F           -1.00461505264609        6.22691638942702       10.18285969582265
C            0.77568345559912        5.42413535256658        8.82256077546722
C            1.24708663810743        4.55732697394394        7.86514820398221
C            2.12382547444534        1.00876725694614        3.97615531833326
C            2.73123400715269        0.32332263617382        2.93946825519251
N            2.20523459752141       -0.94675142266979        2.53553827871565
C            0.78192176167376       -1.16178409057261        2.53346253633367
C            0.21926184956183       -2.20059774461846        3.26941041560590
C           -1.14320631239891       -2.39348667223382        3.27699255182590
C           -1.96560813617879       -1.55600546960600        2.54915913334790
C           -1.41932965303103       -0.52828156673914        1.80595312044161
C           -0.05793578481582       -0.33512879623970        1.79433975064845
C            3.06975804006628       -2.06339662097900        2.28150915202787
C            2.73274042451543       -3.00852423474961        1.31663357084079
C            3.56778574803597       -4.06987910076840        1.05269737891872
C            4.75092289110816       -4.20993656161966        1.75094411143649
C            5.09543478917871       -3.28481728001557        2.71664597965692
C            4.26238050097543       -2.22218639683662        2.98223673824930
C            4.51102721049852       -0.68772367433371       -1.11916814004144
C            5.54593652052679       -1.59757206114590       -0.89336119800233
C            6.10573628554407       -2.30236574969316       -1.93284683399060
C            5.65163230225280       -2.12875911881750       -3.22897789531764
F            6.21137442747055       -2.82153711295700       -4.25329483623559
C            4.61705563061752       -1.23986865759019       -3.46484532155045
C            4.05311572626807       -0.53486829780522       -2.42838398005082
H            5.55472700272296       -0.05816718001234        1.25406228528313
H            5.36315116675217        2.41277927446551        2.48214781248751
H            6.70504246496682        5.34769077818950        4.63765652373034
H            7.51428409415599        7.01123006920973        3.01829489046600
H            6.23232405500622        7.45227399905657        0.96794571027915
H            4.13943497045930        6.23468028695254        0.54247240358091
H            3.32726701396118        4.58298189900673        2.17430248820143
H            4.44541055404253        6.17513667665599        5.81240620261066
H            4.78762155153143        6.47484011255873        8.22854134297736
H            5.23095930974496        4.52317104788885        9.65578344344596
H            5.34803487590020        2.27720742935706        8.66369161273075
H            5.02080256426993        1.98613647920655        6.24308092780674
H            2.46785952826528        3.89387904921086        5.74136527910047
H           -1.56526422401438        2.79139427578028        7.32436639884471
H           -2.39589199220464        4.35437324487432        9.03696107678368
H            1.42245774870707        6.16245952355134        9.26245336033821
H            2.28388452866801        4.60099022052844        7.58510020423225
H            1.22802723261180        0.58569254583634        4.38731427551200
H            0.86697122865754       -2.84109868509612        3.84188608986354
H           -1.56976236459619       -3.19529617465135        3.85698031113665
H           -3.03270350076924       -1.70616859713303        2.55891770499042
H           -2.05919628106717        0.11629108318502        1.22595382144898
H            0.38328549117383        0.41870911536828        1.16743708684785
H            1.81589270001101       -2.88496448344528        0.76765311048298
H            3.29993538816612       -4.79033217912658        0.29752399283246
H            5.40459769019999       -5.04087994750931        1.54279084141470
H            6.01788783368249       -3.39489774578616        3.26261878226737
H            4.52306814599304       -1.49942927141402        3.73511605707243
H            5.88241981835117       -1.77861649021523        0.11180997943570
H            6.90063085150079       -3.00515576272147       -1.75631527974962
H            4.26312379766070       -1.11574068457339       -4.47292024426659
H            3.24485680634307        0.14872037743485       -2.61960576100386
