34
 energy: -7.607893896818 gnorm: 0.000829461493 xtb: 6.5.0 (97a52f5)
N            1.39504338958856        1.26223883087522       -1.02188136443911
C            2.47182453872726        0.96586679337450       -0.70295709343215
C            3.76746715506860        0.63238363674932       -0.29661407641552
C            4.29611532120812        1.00929613142616        0.89860755533681
C            3.68703350808267        1.78071285570220        1.96053029361348
C            2.38694842935986        2.28956830437997        1.89963560542082
C            1.85616285367583        3.01058445240972        2.93994283886874
C            2.60054371850212        3.25438159123920        4.08826993750269
C            2.05787509661782        3.98790190011836        5.15253534755710
N            1.61169020071346        4.59577184458044        6.03570564988470
C            3.89554634300804        2.75390521176380        4.15933762346503
C            4.42849384345205        2.03314134064005        3.11866714722974
C            4.56361418945126       -0.15700392608634       -1.20664615446514
N            4.15063707515819       -0.57290682620090       -2.37424122121602
C            5.10303427079110       -1.31540532146411       -3.03661854817833
C            4.82237568983043       -1.87822391605894       -4.37065051598289
C            3.69411572735007       -1.44916204456324       -5.06634330489430
C            3.39546956962090       -1.95465643333507       -6.30938326476172
C            4.22116038676399       -2.90744076759634       -6.88294698120399
Cl           3.84959630606004       -3.54619113517744       -8.44085382325399
C            5.34453788925524       -3.34910015057775       -6.20319036861443
C            5.64248630113621       -2.84079278019617       -4.96053762915465
C            6.28175040682306       -1.46624786605390       -2.36543788936871
S            6.20624901191394       -0.66721189723216       -0.85662378205748
H            5.30529118343675        0.68915067300191        1.08814888396232
H            1.78648216648049        2.11560697401033        1.02691352205688
H            0.85211535546870        3.39568148326032        2.87927439493255
H            4.47778083592922        2.93996100599362        5.04607773871377
H            5.43396589762480        1.65485030190087        3.19053269745015
H            3.05704378318211       -0.71097082689915       -4.61083795009182
H            2.52435604450926       -1.62241747014301       -6.84860130804929
H            5.97352435367521       -4.09404153204660       -6.66105037570182
H            6.50946060301893       -3.19719446226252       -4.43319932327017
H            7.14500855452056       -1.99474597552197       -2.71709426143087
