44
 energy: -9.876712522916 gnorm: 0.000913666359 xtb: 6.5.0 (97a52f5)
N            1.58591735593061        0.28585072686205       -2.02379505044311
C            2.53014962951036        0.15236893707769       -1.36022829630567
C            3.66212989549756        0.01789742432996       -0.54877496855295
C            4.08359557196183        0.98459264502812        0.31219320307805
C            3.50659090346614        2.28517157830509        0.57338207125693
C            2.35380184280079        2.75990981795937       -0.05789030492959
C            1.84961410621737        4.00487114671699        0.22362001006686
C            2.47416406686040        4.83293906130490        1.14952680165816
C            1.95901216221830        6.10528249458664        1.43541639606766
N            1.53377665007489        7.15940673958041        1.67421208342743
C            3.62195708752429        4.37124772735178        1.78458128659263
C            4.12736977352437        3.12495045329938        1.50372096305657
C            4.40652439940894       -1.21328328713381       -0.64609823353261
N            4.09151008102283       -2.20314630827335       -1.44325497354325
C            4.95937993670287       -3.25935891202257       -1.34350355648861
C            4.70688930128746       -4.49656143176503       -2.11482034300594
C            4.74561971559255       -5.74969706728697       -1.50724050626225
C            4.49292249514445       -6.89034084505790       -2.23549097966912
C            4.18914086743486       -6.80027012971507       -3.57873758700190
C            4.13261492470195       -5.56501808843397       -4.19199618134012
C            4.38459418763120       -4.42233906799533       -3.46636115287210
C            6.02025119792127       -3.07728792111299       -0.46604395172135
C            7.13923967693004       -3.97589680940456       -0.19937664520828
C            7.76085491217416       -3.97197114435826        1.04978585726831
C            8.82585408085660       -4.80309892978147        1.31388191483869
C            9.30100880946077       -5.65133352941005        0.33431147502187
C            8.71078427673938       -5.66085239367653       -0.91310754152905
C            7.64572237584388       -4.83116624702579       -1.17988931220602
S            5.84054058836811       -1.54242731528353        0.30256607308376
H            4.96862098437869        0.75653054348311        0.87880991622873
H            1.84981280026236        2.14392732317139       -0.77760313988269
H            0.96027516453028        4.35572448584920       -0.27194009147622
H            4.11135169605846        5.00742397812168        2.50229129890626
H            5.01684618605874        2.78386158997947        2.00505305090733
H            4.97398467646385       -5.81493044514825       -0.45748968526366
H            4.53076354377875       -7.85438492621792       -1.75532887631916
H            3.99133102968631       -7.69388054804987       -4.14775423104663
H            3.88841283672415       -5.49458801748099       -5.23926416493426
H            4.33580006751784       -3.45515064758797       -3.93588864141549
H            7.39040796529409       -3.30743753402711        1.81078804047804
H            9.28945469861720       -4.79137917919590        2.28663443629458
H           10.13430261157469       -6.30233079274990        0.54220249819237
H            9.08573304701203       -6.31785064093336       -1.68065651763105
H            7.19914181923190       -4.82841451387543       -2.15847244384337
