34
 energy: -7.687162661345 gnorm: 0.000687033407 xtb: 6.5.0 (97a52f5)
N            1.54911537550958        1.30032128261601       -0.92798093414281
C            2.62585821217611        0.96530479430882       -0.64924149206062
C            3.91810612378334        0.57196943598673       -0.28702810603190
C            4.42676702154307        0.73578667957946        0.96350045874264
C            3.79778191271863        1.30901741310786        2.13415742559801
C            2.49236763910724        1.80682029563096        2.14554617251471
C            1.94345587370514        2.33750967870255        3.28626843529158
C            2.67444580432541        2.39449930389213        4.46729290597499
C            2.11477265950395        2.93383853100512        5.63418057015099
N            1.65199848719969        3.38239222567573        6.60028943658526
C            3.97432960127455        1.90145884136513        4.46783609099704
C            4.52451460631735        1.36999293680910        3.32684265022444
C            4.73514976558432       -0.04063266723916       -1.30821391549149
N            4.34396505463257       -0.24778448423972       -2.53789390298985
C            5.31386646452626       -0.85821700694065       -3.30153491499643
C            5.06019356113549       -1.18865304111254       -4.71747336305766
C            5.87150349185790       -2.06568067080105       -5.43243353438046
C            5.59915222035805       -2.35623176634620       -6.75119837754059
C            4.51421364591537       -1.77967714814982       -7.37909091033498
C            3.69779791343645       -0.91221294157868       -6.68330439364722
C            3.96792054133679       -0.62200653435723       -5.36458226259605
C            6.48322394046262       -1.11614306617548       -2.64598066472256
S            6.37709810588696       -0.59299015528528       -1.02346857785696
H            5.43482223347350        0.39101518639937        1.11076823305251
H            1.90244445893241        1.77459665794055        1.24944060859948
H            0.93532299594670        2.71638874758950        3.27962610678677
H            4.54562367736780        1.94018796116154        5.37982770166477
H            5.53155527524051        0.98980090376726        3.34637537150986
H            6.71079180790854       -2.52980868949630       -4.94537577666513
H            6.23410514868567       -3.03776108172558       -7.29359391400592
H            4.30289764114721       -2.00897082849436       -8.41079239199123
H            2.84780442043160       -0.46327148183705       -7.17072474393127
H            3.33330487229357        0.04958359513764       -4.81276776563727
H            7.35613944626894       -1.57190290689140       -3.06838222560422
