53
 energy: -11.481978598234 gnorm: 0.000842360171 xtb: 6.5.0 (97a52f5)
N            1.29978111925291        1.02513744306969       -0.29373832844307
C            2.38604477915251        0.65917557809851       -0.10203868552162
C            3.69227599658872        0.21765697843029        0.13090385093540
C            4.09502420053976       -1.04614985794631       -0.16652713384046
C            3.33540761106514       -2.12008571947922       -0.77538788770312
C            3.95140024108708       -3.36324758089169       -0.95978218896699
C            3.28354028184980       -4.41181980651760       -1.54048543769049
C            1.96343166298749       -4.27403832035261       -1.98185937075833
C            1.28159100843986       -5.40931982069949       -2.57445667449421
C            0.18607296958648       -5.38890040929389       -3.38619047110391
C           -0.36737587576238       -4.12503745412029       -3.92991333390522
C           -1.68404112592474       -3.75171781307964       -3.66315179480515
C           -2.19595263565703       -2.57622143277746       -4.16453991085674
C           -1.40873621769428       -1.75556553834896       -4.94691374565734
C           -0.10626115281213       -2.11436056565373       -5.22971448747899
C            0.41085314690769       -3.28784057787877       -4.72927275907325
C           -0.44604993186190       -6.65747945578250       -3.80370497502422
C           -1.06546741360982       -6.76060369445039       -5.04896080633586
C           -1.66394653203700       -7.93468086611175       -5.44728242250896
C           -1.66083630989760       -9.03108499936049       -4.60970080684912
C           -1.05941591075653       -8.94813777545619       -3.37055962661437
C           -0.45907571651403       -7.77545414464732       -2.96916850754363
C            1.34261181728336       -3.03758582370871       -1.78043847462944
C            2.00943583284424       -1.99202926528086       -1.19876371347413
C            4.61969734562664        1.18502852095509        0.74500283867930
C            6.00720389429611        1.04949041953203        0.65088654879248
C            6.84654938676628        1.97032445540351        1.23293589328544
C            6.33212497065105        3.05200846102572        1.92176814702221
N            7.23066880677821        4.03071775693333        2.53885997167166
O            8.45515762824940        3.88891632026824        2.39271708454059
O            6.73559044275165        4.96693119764060        3.18628938878952
C            4.96265967238461        3.20666429394467        2.01763511807479
C            4.11945297528824        2.29106873916857        1.43531319887786
H            5.10387332564255       -1.30779110732601        0.09614163761895
H            4.97002166950579       -3.49296211995587       -0.63691681538216
H            3.78046060254102       -5.35758580418525       -1.67210605434768
H            1.70399864622082       -6.37257332280153       -2.34839394001576
H           -2.29379887146280       -4.39417655959334       -3.05172108487516
H           -3.21345385908931       -2.29644009018180       -3.94611087213729
H           -1.81175158352292       -0.83606887408533       -5.33854972426907
H            0.50699544862182       -1.47431925525876       -5.84244930782298
H            1.42616334933529       -3.57146137449571       -4.94647739547383
H           -1.06633267870675       -5.90607149778025       -5.70304492762824
H           -2.13536376067300       -7.99728378028476       -6.41429604183843
H           -2.12954491520294       -9.94987256836943       -4.92188312567070
H           -1.06193665271755       -9.80261616055576       -2.71386201511275
H           -0.01255147396781       -7.71059826783618       -1.99246171071339
H            0.31659697829879       -2.91249561450748       -2.07416184821470
H            1.49576320437698       -1.05981596897721       -1.06570497143915
H            6.42931910101159        0.23316919048271        0.09245677385460
H            7.91538497997822        1.86533032095184        1.15699193593045
H            4.57037615649623        4.05503968433662        2.55184287706115
H            3.05409336543396        2.42076392780354        1.50865611310866
