121
 energy: -26.097443671091 gnorm: 0.000511156835 xtb: 6.5.0 (97a52f5)
N            1.46860176703083        1.21214147325133       -0.07400755381833
C            2.54248775106395        0.77014432893899       -0.01618378412938
C            3.83589461518752        0.24344220213731        0.06466781330754
C            4.19261833436296       -0.91154974236697       -0.56147686776823
C            3.39130488665591       -1.77692477602755       -1.40265056684918
C            3.98946668029285       -2.91083196401208       -1.96830705443608
C            3.27801691737120       -3.76722816289247       -2.76978313752014
C            1.93041182377569       -3.53746747587438       -3.04628193957925
N            1.18496565450814       -4.43240422867927       -3.87808641050224
C            1.49905545010902       -5.83195375394582       -3.89884363971457
C            1.43656542075686       -6.55768911024075       -5.08780634807120
C            1.74139955391090       -7.89569618647161       -5.11228273798093
C            2.11238594498993       -8.57377206245235       -3.94580109214336
C            2.42941143170716       -9.98829996231015       -4.00928386230275
C            2.60513852608492      -10.79557406182350       -2.94694807022142
C            2.93121189481666      -12.20806832467775       -3.01309383752879
C            2.85042383936316      -12.99182143680369       -1.85676223977731
C            3.14759281640074      -14.33135594712962       -1.88646518517570
C            3.54898184557840      -14.94963910514740       -3.07044594518397
N            3.85512145876774      -16.34742076260580       -3.10191604552075
C            3.13480327037427      -17.26371304298825       -2.26206499709707
C            3.78488641386360      -18.33687782175143       -1.65742795476114
C            3.09295602458185      -19.21601015208895       -0.85490786842778
C            1.73925812423329      -19.04130499745141       -0.64220525653878
C            1.07940002068049      -17.98320498718727       -1.23653514540780
C            1.76931282141985      -17.10268339644625       -2.03921480911249
C            4.88835450251687      -16.84315097686038       -3.96828994810477
C            4.74490241815822      -18.06558335027598       -4.62022554039238
C            5.74134247918590      -18.54618718016213       -5.43987106574276
C            6.89954808547260      -17.81609635549063       -5.62364224420321
C            7.05722928072146      -16.60189843584600       -4.98401315598570
C            6.06207419911865      -16.11916998354598       -4.16405252009239
C            3.64234260242563      -14.17009268601188       -4.22331541951345
C            3.33880100128056      -12.83139918027587       -4.19793186272739
C            2.16994518196256       -7.84198576076107       -2.75430426062586
C            1.87121401084390       -6.50208021537205       -2.73378548279813
C            0.09767649371665       -3.93881943553815       -4.67325944645993
C           -1.07655416036180       -4.67832018153832       -4.81045440064433
C           -2.13295478586474       -4.19215034928605       -5.53937496544264
C           -2.05949660180584       -2.94851543302782       -6.17645007134576
C           -3.20471653168017       -2.45220102228652       -6.91639199754876
C           -3.19628863766608       -1.39304182689268       -7.74680356067584
C           -4.35795243413871       -0.87568119285734       -8.44716170290865
C           -4.18900081370396        0.01160888504461       -9.51576999471143
C           -5.27036814487938        0.52417237924569      -10.18792944528106
C           -6.57102320575082        0.18466991032823       -9.81564316274782
N           -7.69979538244334        0.72555365104800      -10.51076655947841
C           -7.63322009349206        0.95070698515037      -11.92777101546897
C           -8.24276378144959        2.06316180017698      -12.50281791848741
C           -8.18303462360091        2.27289721937160      -13.86230741044677
C           -7.51468583843882        1.37605377029189      -14.67304922177214
C           -6.90488871016449        0.26777447783581      -14.11802184102970
C           -6.96270076554649        0.05636017177845      -12.75880515594331
C           -8.90093955688653        1.05044823327934       -9.79286999940018
C          -10.15320673708585        0.83772654185326      -10.36422997477041
C          -11.30273369465071        1.15835318693891       -9.67743385132791
C          -11.22404134642003        1.69768004003637       -8.40807558064734
C           -9.98965156984137        1.91485004687164       -7.82738823993212
C           -8.83887500677279        1.59469440495088       -8.51214893437819
C           -6.74452288217184       -0.69278163326250       -8.74543534324970
C           -5.66454016545179       -1.21456420550181       -8.07791682689756
C           -0.87450576870567       -2.21566244996544       -6.04648727455372
C            0.17801043957413       -2.70082325735966       -5.31045619173952
C            1.32821958130132       -2.41110555132948       -2.48616818929267
C            2.03949960733228       -1.55375963529805       -1.68777250752724
C            4.80612966635569        0.99002281688069        0.88775575718113
C            6.18699352334533        0.81607334971315        0.75768696524345
C            7.06815474524932        1.52695150913811        1.54263766776021
C            6.59766914900409        2.43111308956072        2.47367169142975
C            5.23863188204524        2.62657314933867        2.61359051820351
C            4.35615998837686        1.91815466217339        1.82982689350282
H            5.19908387109492       -1.25475142548793       -0.40558972999691
H            5.02906738991656       -3.10631468985558       -1.76786656488341
H            3.75777452248868       -4.62554093509358       -3.20639145939306
H            1.15621909118996       -6.04628762262605       -5.99196355442482
H            1.69263183479882       -8.44065054471335       -6.03945496159055
H            2.50011788327360      -10.41385414990807       -4.99353988803647
H            2.47076542820297      -10.38571717368224       -1.96270504169599
H            2.54364774754492      -12.53008708262897       -0.93388978090256
H            3.08539986073719      -14.92151864227938       -0.98904412755708
H            4.84062904646378      -18.46399914598208       -1.82143773659531
H            3.60847075643615      -20.04111791019394       -0.39117213797547
H            1.19852636821959      -19.72989306095355       -0.01371118744993
H            0.02269837475536      -17.84783130452124       -1.07315516492892
H            1.25860597257067      -16.28273755289294       -2.51308098827005
H            3.83823871239592      -18.62708430715303       -4.47760612876635
H            5.61758894542091      -19.49349647944802       -5.93877191738184
H            7.67965104398233      -18.19385891865246       -6.26419559397363
H            7.96158045281613      -16.03278414913969       -5.12501041009753
H            6.18451552882398      -15.17991394618988       -3.65368029415877
H            3.94748860432918      -14.63976017481079       -5.14191486900628
H            3.43143447444436      -12.25192773854981       -5.09898077497881
H            2.46586856219447       -8.33040179390482       -1.84320778330145
H            1.91033746852710       -5.95111967165744       -1.81040978844352
H           -1.14835682629680       -5.63169065989124       -4.31700650871431
H           -3.03660136505414       -4.77074499170308       -5.62711718177886
H           -4.12244973901807       -2.99821323893303       -6.79346770411822
H           -2.26368543031350       -0.89265295822368       -7.93428495583045
H           -3.19143176987762        0.28741002681768       -9.81202492502329
H           -5.12764552941334        1.20874061696333      -11.00559835987475
H           -8.75578511386990        2.76195435224342      -11.86552289680375
H           -8.65807797542650        3.13837151837282      -14.29463363146318
H           -7.46911246201491        1.54052772317635      -15.73721305182068
H           -6.38453600458464       -0.43321962822599      -14.75004336007432
H           -6.49736582498617       -0.80983732677360      -12.32190611960412
H          -10.20883105750323        0.41135357194947      -11.35050513694867
H          -12.26561859429607        0.98819742078049      -10.13073776650869
H          -12.12435720354055        1.94955360013527       -7.87182766644245
H           -9.92719916036711        2.33741563274314       -6.83783865890439
H           -7.87451216826271        1.77179918868991       -8.06907427678668
H           -7.74460798689719       -0.96279754859618       -8.45480728855808
H           -5.82606993561596       -1.87513793938496       -7.24474078731932
H           -0.79348829099984       -1.24907564094470       -6.51078252045155
H            1.08495107609053       -2.12934241534808       -5.21764698594744
H            0.28549038267207       -2.23057845659488       -2.68047038795696
H            1.54385507492352       -0.69814325232773       -1.27234290149414
H            6.57312491757655        0.13850871346582        0.01730327185294
H            8.12974965220654        1.38013459478672        1.42716478698052
H            7.28960119664366        2.98581968423593        3.08623813761947
H            4.86845767913937        3.33525018037841        3.33643099035730
H            3.29747963158168        2.07314912730743        1.94025309664827
