31
 energy: -6.858551816340 gnorm: 0.000387323854 xtb: 6.5.0 (97a52f5)
N            1.24504461858045        0.02297004242077       -0.63516554982447
C            2.38547244289408       -0.04597367654071       -0.42649430131775
C            3.76051025671758       -0.12510255652195       -0.18136902265187
C            4.31832148128176       -0.90175102688497        0.78402060156543
C            3.66313973716509       -1.78048377059767        1.72758055222251
C            4.44408226080557       -2.48371966020340        2.65080859271277
C            3.86740483883466       -3.33199592364577        3.56410371626232
C            2.49675628813286       -3.50718074686467        3.58679778976164
N            1.88488675313437       -4.40813281717536        4.56275048524127
O            2.60068617512457       -4.90363282128218        5.44355542917260
O            0.67223947788358       -4.64359670437423        4.47431212533476
C            1.70807425697766       -2.82157747029918        2.68273538457578
C            2.27862246328809       -1.97215659247652        1.76845774894074
C            4.62406706702441        0.67259704830818       -1.01462742480671
N            5.92300013570178        0.70119313136515       -0.91189705756149
C            6.49614761461597        1.55300248747386       -1.83961085474930
C            7.86947374594046        1.79922506193620       -1.97706744627571
C            8.30609048979517        2.67119848850060       -2.94132181228622
C            7.40216496902866        3.31482322717512       -3.78449285644556
C            6.05284813259601        3.08823621542243       -3.66569898393824
C            5.60017863686492        2.20863002927580       -2.69401331542478
S            3.99099122439541        1.71287264550143       -2.28782810433988
H            5.39056340946127       -0.85751514219914        0.85542023178277
H            5.51304580720070       -2.35480313467084        2.64125997072695
H            4.47081802859764       -3.87043598565680        4.27570274768233
H            0.64119430224281       -2.96834422559120        2.71010938784814
H            1.64535570741330       -1.44968549345271        1.07636954354670
H            8.56039441446347        1.29824582158000       -1.32231257037636
H            9.36147277630853        2.86161719506154       -3.04969698247835
H            7.76604888085301        3.99598061186820       -4.53633089672192
H            5.34430360666917        3.58014574256211       -4.30980712818979
