29
 energy: -6.388273022734 gnorm: 0.000308539360 xtb: 6.5.0 (97a52f5)
N            1.24961679322761       -0.52498645942390        0.26432831843275
C            2.38424554373257       -0.28425095662825        0.20489670732323
C            3.75529025184931       -0.00784974086662        0.13308381826116
C            4.28354174907784        1.24260351805690        0.14271319909593
C            3.59768669826568        2.51716796175948        0.22899775822203
C            4.35225417629706        3.69297259028882        0.20757996185456
C            3.74736373122999        4.92644023985273        0.29063285587215
C            2.37482504906127        5.01962806155340        0.39776734284415
C            1.60915776675953        3.87201818297486        0.42079151100057
C            2.21072156733439        2.63813174371072        0.33771846696147
C            4.64969811282416       -1.13735136075036        0.04237107161542
N            5.94826656193463       -1.04230089097724       -0.03170008252658
C            6.54967422007208       -2.28771452168261       -0.10710289775421
C            7.93000310253401       -2.52104541955136       -0.19138442891376
C            8.39604976745841       -3.80971581544783       -0.25443838307821
C            7.51492630667441       -4.88975554845748       -0.23645152217394
C            6.15930113198672       -4.68353723329043       -0.15478462176511
C            5.67671972943841       -3.38455685976529       -0.08938309140446
S            4.05065878612686       -2.79570256385650        0.02317515914003
H            5.35544725463288        1.29673250503557        0.07798885344108
H            5.42351361965240        3.62633164572778        0.12478598440846
H            4.34690401174623        5.82187142496554        0.27252307038258
H            1.90208518595426        5.98587234739201        0.46372427730743
H            0.53700748083248        3.94321122308700        0.50523709494840
H            1.59983826758482        1.75583003149758        0.35902755249214
H            8.60379854209572       -1.68314118297351       -0.20458702890263
H            9.45636468896708       -3.99075019227699       -0.31877943012345
H            7.90134960924772       -5.89435537887574       -0.28673446872935
H            5.46818029339283       -5.50834735107844       -0.13932704822953
