32
 energy: -6.951319268394 gnorm: 0.000706218529 xtb: 6.5.0 (97a52f5)
N            1.28524445506967       -0.64445198782767       -1.27412250433407
C            2.35933757089368       -0.41123149230475       -0.89837590895629
C            3.64862133540422       -0.09902643015221       -0.45559671378696
C            4.19648927221359        1.13977128291590       -0.58065562617975
C            3.60928120534358        2.33047164601666       -1.15255994455453
C            2.32799798276509        2.39753106778809       -1.68800728362054
C            1.86253571581351        3.57964916715283       -2.20123013191370
N            2.54995054371226        4.70959381883157       -2.23534704841003
C            3.77004613880458        4.64484625278346       -1.72643922106813
C            4.33449420261148        3.51692215513813       -1.18743053944516
C            4.41238584772975       -1.15473391533626        0.16675843876157
N            3.98294059251825       -2.37868694501322        0.32366655608191
C            4.90517980846190       -3.18160376735190        0.95821309677857
C            4.60749111715976       -4.59981662821502        1.23350153753444
C            3.55158352859767       -5.21809027205774        0.56673642516088
C            3.24529819824781       -6.53801462712488        0.79970221694326
C            3.98870133959031       -7.26817729262981        1.71288618170640
Cl           3.60744039071048       -8.92439626176161        2.00902506457284
C            5.03734419941551       -6.66672164352239        2.39016845935544
C            5.34367824718038       -5.34694093365739        2.15406197992859
C            6.07560418749521       -2.56210502308595        1.28850394058865
S            6.03361793309674       -0.92352023663065        0.80150103441230
H            5.19606226877573        1.25757923388518       -0.20202848515704
H            1.70003524837221        1.52734107775371       -1.69978364222744
H            0.86449433270443        3.61930609580561       -2.61348547217384
H            4.34132922857983        5.56161651832748       -1.74596159887966
H            5.33419841952788        3.54341924541999       -0.78858912306304
H            2.97734189996685       -4.64123440794215       -0.13745982825232
H            2.43133109808599       -7.01791097658392        0.28287411916507
H            5.60086547687180       -7.24652728565252        3.10185478620003
H            6.14849425218928       -4.88062969700661        2.69446594282833
H            6.91416396208090       -3.01983773797408        1.77385329200661
