48
 energy: -10.709618027328 gnorm: 0.000728306957 xtb: 6.5.0 (97a52f5)
N            1.45540060373250       -1.06319148449944        1.05727490949752
C            2.46019718802328       -0.69573070417203        0.60578934339697
C            3.67274074308822       -0.24073003843887        0.07273092775456
C            4.25148462518899        0.92219435589624        0.46697342303202
C            3.73991688309463        1.82520367628630        1.46503831799675
C            2.64328494838191        1.64523921752164        2.26299776707487
N            2.61376106571507        2.72138739204600        3.11925558256463
C            1.61491998571774        2.95138923721725        4.13310183056193
C            1.33450621447386        4.24785582239678        4.53278196678584
C            0.38431690793232        4.49189939276335        5.49954833373379
C           -0.29385076233235        3.43956554740624        6.08035291897087
C           -0.01762349981148        2.14380891079863        5.69341593444070
C            0.93164922511971        1.89943984034418        4.72563649408717
N            3.62006517675290        3.57243936008139        2.90351155994481
C            4.31719064973161        3.07189062342234        1.89737271489805
C            5.49837462653875        3.73479188478274        1.33087667065648
C            6.34893938316735        4.46041333504356        2.16381909861600
C            7.45460559416922        5.09846293448668        1.65545762813926
C            7.73328840412400        5.03894270366695        0.30267506752482
N            8.90930027656120        5.72062330854794       -0.23756576983723
O            9.62120744037317        6.38011169716927        0.53446498039969
O            9.15350296630123        5.61533931644795       -1.44875719601962
C            6.88740305346769        4.33980283334276       -0.53824734407466
C            5.78157195419308        3.69770517421082       -0.03523582587814
C            4.32404983356110       -1.04888642652781       -0.92611171691795
N            5.45846717814550       -0.74420427436785       -1.49036250024504
C            5.84723436422083       -1.70032977513798       -2.41227028983081
C            7.01689201641279       -1.65696389244371       -3.18390599511089
C            7.28127120986381       -2.67228588338307       -4.06752011889996
C            6.40198727236097       -3.74428400628785       -4.20751265666141
C            5.25059128671193       -3.80608803513020       -3.46087604624739
C            4.97355342841491       -2.78536224714890       -2.56435046663099
S            3.62962840845607       -2.56651163736840       -1.49257710859334
H            5.19171503207297        1.17338459411597        0.01288797739360
H            1.94519873715625        0.83042754989229        2.24354728126425
H            1.87371960959362        5.05800587386997        4.07396156997889
H            0.17108918021161        5.50379580946592        5.80267586507897
H           -1.03733096945480        3.62943301877470        6.83711581253722
H           -0.54430090986755        1.32182571890238        6.14993806410731
H            1.15680824730072        0.89015729556763        4.42911810259573
H            6.12694739009837        4.50912766341592        3.21577421649721
H            8.11659099613723        5.65299500712350        2.29859789516096
H            7.10815010358673        4.31421567255039       -1.59189026091653
H            5.10464917734394        3.19380401046108       -0.70230742020232
H            7.69020089652532       -0.82634709649799       -3.06975178198994
H            8.17997874978634       -2.64127383973581       -4.66116708714741
H            6.62784964195947       -4.53165535147778       -4.90775165605768
H            4.56292546568347       -4.62786408539483       -3.56038101343721
