35
 energy: -7.912550102379 gnorm: 0.000626088196 xtb: 6.5.0 (97a52f5)
N            1.96501793163245        0.77922787973365        1.12468503655277
C            3.09947818276346        0.60610406848179        0.93408437604279
C            4.46053593236581        0.40052271877462        0.70777872891185
N            5.00615145653078       -0.72120722985260        1.10911066556775
N            6.28758388906763       -1.03581589993107        0.96168735313482
C            6.88534848684953       -2.21361854316952        1.41458619330520
C            6.11644012313592       -3.19033171343567        2.03558189440992
C            6.69571497937354       -4.34970872433473        2.49143142069123
C            8.06269594205312       -4.56483814245831        2.34001903569131
C            8.65624003466410       -5.74653376460063        2.80711149368268
N            9.14934729159967       -6.72189193629282        3.19970011262763
C            8.83036755610785       -3.58434091170757        1.71741087508298
C            8.25193430925608       -2.42505004527888        1.26002781014296
C            5.20248079701299        1.43365319779445        0.04629047314422
N            4.69719490273765        2.57118250037506       -0.36095083802857
C            5.63186387211055        3.38359380346880       -0.97428451155880
C            5.24882220040103        4.71489941784057       -1.48218470765753
C            6.04796236244675        5.42842460528072       -2.37193510459741
C            5.65978822745509        6.67124150697939       -2.82187853542381
C            4.46931190808581        7.22357426618529       -2.39480325495400
C            3.66352750009322        6.52700728702764       -1.51775657159126
C            4.04940321476966        5.28399767349208       -1.06812888950412
C            6.89338618483669        2.86724190061802       -1.04248269960157
S            6.91375182634490        1.31022339578900       -0.31236756146625
H            6.89650680821497       -0.34206491533561        0.51155521394300
H            5.06069655206636       -3.01780088332131        2.15145547184850
H            6.09777149009571       -5.10511414647781        2.97256959795499
H            9.88851128749033       -3.74720250693339        1.60022771063156
H            8.85046402642056       -1.66960034517157        0.78139789595765
H            6.97082318337992        4.99838779974543       -2.71962326094647
H            6.28675744756823        7.21361106954397       -3.51097480141295
H            4.16875217383692        8.19686806636033       -2.74712981865691
H            2.73214989341837        6.95556982557016       -1.18454558910210
H            3.42596238809921        4.73296769946887       -0.38544042561308
H            7.75370563772859        3.34760102576092       -1.46339478919973
