31
 energy: -7.055624455891 gnorm: 0.000635375919 xtb: 6.5.0 (97a52f5)
N            1.23355259809682       -0.27393382771621        0.10219479120834
C            2.39486272972722       -0.22810233652134        0.14556715821873
C            3.77530381891067       -0.18031341309698        0.18574504017517
C            4.55686481414408       -0.67007184385969       -0.78678769518698
C            6.01041577421008       -0.66099604679384       -0.78476389377039
C            6.71073310400459       -0.48364724313206        0.41370148646359
C            8.08079124223307       -0.49510100382835        0.46576266611306
C            8.84029576216467       -0.68787375730088       -0.69015187935482
C           10.26720968959763       -0.71026619343303       -0.66027564068858
C           10.98984300716513       -0.89949028287520       -1.78673944917018
C           10.35008718119737       -1.08221052697485       -3.05050911750636
C           11.07354867543114       -1.27563824730558       -4.22855785015713
C           10.42657038009075       -1.44505832793477       -5.43450456927771
C            9.04968790598173       -1.42655754345512       -5.50268237953292
C            8.28068050794009       -1.23769070352106       -4.35279346453307
C            6.85488394501832       -1.20641654492363       -4.38521237701234
C            6.13067219567537       -1.02121577452339       -3.25843112778458
C            6.75104538236816       -0.85356724247786       -1.98081144255327
C            8.16923889391352       -0.86784522019117       -1.92285301905766
C            8.93467449149837       -1.06372984659033       -3.11064885762520
H            4.21525635898640        0.30314244138727        1.03959747865507
H            4.06044853193989       -1.12092850571434       -1.62698681028721
H            6.15798187887580       -0.36048092412386        1.32792876533556
H            8.58711006355149       -0.36133872456238        1.40610430144806
H           10.76404601075083       -0.57315835267661        0.28448572309076
H           12.06504575885773       -0.91422389039105       -1.74591372557150
H           12.14874621854327       -1.29014398504174       -4.18538024370221
H           11.00307550057523       -1.59232769607138       -6.33300803401068
H            8.55321175716185       -1.55764391613981       -6.44844942439438
H            6.35987529766977       -1.32966220685095       -5.33292605934252
H            5.05931052371912       -0.98337831335982       -3.33085035018868
