36
 energy: -7.898963652307 gnorm: 0.000481390660 xtb: 6.5.0 (97a52f5)
N            1.25000501076436       -0.04423156919837        0.01802450679020
C            2.41087179753459        0.02110180302193        0.01427928164722
C            3.80568082995457        0.05482803426423        0.04387547418447
N            4.48089229613721       -0.74607851081763        0.93323570019043
C            3.89684029515607       -1.65854922665896        1.62505554413184
C            4.53033801742429       -2.47971046857725        2.61136805192684
C            3.86492734577821       -3.60543372014430        3.10233161346972
C            4.44411672408568       -4.41891900625931        4.04433908536813
C            5.70653140450499       -4.12759051531962        4.53120654455341
C            6.38240327005364       -3.02162750797613        4.08097366961186
C            5.81951212641032       -2.17003837556349        3.12390219133839
O            6.48449183482901       -1.04632055820116        2.70437166321701
C            4.50706792200640        0.90403024873140       -0.78314348943798
C            3.83843402359883        1.78327325989907       -1.63614436573563
N            3.32169806933284        2.53592957146913       -2.35614935519231
N            5.88067678469906        0.86778193603843       -0.79338163604540
C            6.59338955670279        1.73616931869049       -1.41810303994180
C            8.02180252041273        1.71604276327640       -1.51125845284065
C            8.70193378186535        2.85514213407080       -1.94821144607285
C           10.07168902918909        2.87414898643681       -2.03757312699271
C           10.80506761657554        1.74991080827036       -1.69991811624192
C           10.16774636781942        0.60866047670287       -1.28255043123649
C            8.77302028169252        0.55448085341487       -1.18404628649472
O            8.13792996663111       -0.60070002833424       -0.80530694408191
H            2.85366085988886       -1.83634461122837        1.42566885136312
H            2.88479876714680       -3.83938074376311        2.72274948781327
H            3.91695835928182       -5.28729477951820        4.40469246894244
H            6.15765582193351       -4.76985898889898        5.27009947882806
H            7.35885132261433       -2.79671842172450        4.47116636520429
H            7.34301449533447       -0.95482654752474        3.15895875764273
H            6.07586886530069        2.56204573720997       -1.87579785612308
H            8.13613832375631        3.73439758014510       -2.20561455870672
H           10.57826379085463        3.76625167983132       -2.36828531191455
H           11.88054520948932        1.77043287638940       -1.76972369690020
H           10.74387773451184       -0.26393800974427       -1.03165191723418
H            8.77888957672526       -1.31736647841412       -0.63920870502553
