58
 energy: -11.880484150030 gnorm: 0.000754422589 xtb: 6.5.0 (97a52f5)
N            2.34424676672702        0.65536327308653       -1.11970948641512
C            1.30702597601427        0.15411623883502       -0.94366393547021
C            0.06315379317964       -0.42800439585663       -0.74443099226536
C           -1.00644576381967        0.41483093796229       -0.99996590329128
N           -1.90857578965290        1.11763154935647       -1.22410110004462
C           -0.05554583453791       -1.75080514226045       -0.35553692353755
C           -1.31816349290906       -2.43565951454960       -0.18180269692685
C           -2.55340107909105       -1.97167522470900       -0.45574327067834
C           -3.78040493868738       -2.71366309638268       -0.29422143329561
C           -4.98982685273683       -2.13218341582895       -0.68549693983910
C           -6.19014109839201       -2.79438507346960       -0.56577886305195
C           -6.21674170428311       -4.09767428671611       -0.02701516945056
C           -5.00503229560713       -4.69589749576350        0.37872938162761
C           -3.82147856433698       -4.00641736565995        0.23783396777924
C           -4.99487072940921       -6.08030273686443        0.96208619147921
C           -6.34091313716505       -6.46632020929474        1.59225957066826
C           -7.49644085995030       -6.15929408732850        0.64139354787005
N           -7.42544586048672       -4.78611653987697        0.10094624819670
C           -8.71804767794696       -4.19197776185282       -0.29903194899378
C           -8.55607195820128       -3.13112631968944       -1.38632078149923
C           -7.45886495979350       -2.12494301842595       -1.01069955537501
C            1.16496615429396       -2.55275555204816       -0.09305731083415
C            2.10119099674312       -2.13509129131678        0.84606583182486
C            3.26120128792954       -2.86218465954243        1.14426296540911
C            3.49862038152425       -4.04133190097278        0.49399378270794
C            2.56279281761317       -4.48537914422625       -0.46084360025481
C            2.93460205751154       -5.70367461125188       -1.06636002814932
C            2.11979496206686       -6.23617505218137       -2.02458351891626
C            0.94189222718334       -5.55354562287814       -2.37946718316593
C            0.58691183826693       -4.36750011217110       -1.78835529117801
C            1.39673095834598       -3.78744360868256       -0.78770768729397
C            4.24809287911360       -6.14975548025936       -0.47210434116661
C            4.62314363349069       -5.04524021865195        0.56329370065013
H           -1.23516436158505       -3.43883216070825        0.19459491055995
H           -2.66045852694581       -0.97474238645035       -0.83650778614414
H           -4.98069167013854       -1.13856619644971       -1.09589885754056
H           -2.91167713676453       -4.48368718246672        0.55015137447562
H           -4.18957538247542       -6.15528880248445        1.70365255176693
H           -4.73738008579430       -6.79320827916239        0.17012766169057
H           -6.48066621271310       -5.90741701391078        2.52551529797095
H           -6.34636738376626       -7.52771929074044        1.87672428854566
H           -8.46234753295358       -6.28760563644370        1.14218017620043
H           -7.48933696731529       -6.85208867915272       -0.20583974959824
H           -9.17556341463477       -3.75670475449025        0.59484232135403
H           -9.38406246875685       -4.99599824338035       -0.63102664719073
H           -9.50936508559698       -2.61602284674675       -1.56887037076813
H           -8.29529688668529       -3.61874353273490       -2.33342153699686
H           -7.81311722762874       -1.47236164258450       -0.20418081840013
H           -7.24105159379017       -1.46139927162390       -1.85711040827394
H            1.91675730295653       -1.21190919070018        1.36725952342177
H            3.96493875039632       -2.50340521306515        1.87460891072329
H            2.38640101450169       -7.16349020597437       -2.50022861906685
H            0.30522569589652       -5.97503774530532       -3.13975124654618
H           -0.31233807225570       -3.86088226913761       -2.09013118482577
H            5.00499103687920       -6.24839942834570       -1.25827751715900
H            4.13629670212758       -7.13266020719462       -0.00092587136812
H            5.57642888855806       -4.56264441553190        0.32028042444816
H            4.71006648548380       -5.44743446573275        1.57883594560526
