74
 energy: -16.694384842236 gnorm: 0.000317199691 xtb: 6.5.0 (97a52f5)
N            2.16097042602376        0.70321308840574        0.30265106252335
C            1.11543972875155        0.18983595762342        0.31645671103149
C           -0.13654846675941       -0.41131870429410        0.32813360767532
C           -1.19789282241249        0.47574952726871        0.23317050100342
N           -2.09463325006206        1.21429464909924        0.14986446567044
C           -0.27349630337274       -1.78313670224971        0.40092958442733
C           -1.54107379008374       -2.47849692166190        0.36290698359672
C           -2.76846502583427       -1.95054823882656        0.18911652971935
C           -4.00156721063128       -2.70167847319443        0.14289786178588
C           -5.18906207597125       -2.05169134198880       -0.21094091458561
C           -6.37584119351664       -2.73419290548292       -0.28408586511135
C           -6.43579172405897       -4.09837804226048        0.00028435778545
N           -7.66754287393350       -4.81535570567574       -0.10809585024798
C           -8.62501002096257       -4.43719752195226       -1.11128415815932
C           -9.98700625499164       -4.42383980735209       -0.82330862044330
C          -10.90315488916622       -4.05726467937432       -1.78249607544721
C          -10.47703126084864       -3.69896826078222       -3.04607868456460
C           -9.12963533423512       -3.70938069827173       -3.34760845765406
C           -8.21114902093628       -4.07524855276653       -2.39035204314768
C           -7.95816061359238       -5.91075419630449        0.76431786335474
C           -8.66642016162037       -7.02025956117325        0.30307737512970
C           -8.96475070548084       -8.06242220780272        1.14228321150861
C           -8.58013231061002       -8.04077042311774        2.48747710461490
C           -8.93181248256094       -9.15059663330017        3.34326507081791
C           -8.81021913646076       -9.16977996214757        4.68514028070485
C           -9.16684335750026      -10.23978378999717        5.59091056169973
C           -9.61552247096040      -11.48118326224521        5.18633486602475
C           -9.75723419559387      -11.86863576050518        3.86264516991263
N           -9.88032695168766      -12.18351949164740        2.74810582807713
C           -9.99649008593942      -12.44756666495806        6.10797474500339
N          -10.32228105954775      -13.26310295270482        6.87319009521948
C           -9.04087597187674       -9.93559973950574        7.03918362208229
C           -9.65468749807285       -8.80628641680544        7.58177472294874
C           -9.53308983070738       -8.51169305832070        8.92086353796701
C           -8.79346276388504       -9.33374623892555        9.74647399943063
C           -8.17341303969855      -10.45217151625656        9.22762477305759
C           -8.29253943783409      -10.75010217413268        7.88909047165637
C           -7.86522476237443       -6.92759366063015        2.94514572943961
C           -7.56001786258492       -5.88990114290630        2.10127401436499
C           -5.25744031025675       -4.74851584355832        0.36751877802581
C           -4.06770070935759       -4.06909836526998        0.43561707306355
C            0.93315380418923       -2.64116462996848        0.51909680672662
C            1.15579314056864       -3.68067705319141       -0.38436310777176
C            2.26296480684743       -4.49034729424239       -0.26895332977871
C            3.16841557224537       -4.28441113740345        0.75198920345848
C            2.96213273692800       -3.26564272327864        1.65979971134335
C            1.85640732960758       -2.45365276486077        1.54760128512736
H           -1.47073082906258       -3.54530742500637        0.47121310266731
H           -2.86482322506726       -0.89044665912881        0.05695693320208
H           -5.16121658966332       -0.99958763837736       -0.43594723418912
H           -7.28176179447041       -2.22078281098186       -0.55450220013199
H          -10.31152182646790       -4.69465279589515        0.16610802668808
H          -11.95464301734939       -4.04840888369195       -1.54657938629297
H          -11.19527536172454       -3.41155536526254       -3.79628543971307
H           -8.79691234962276       -3.43136977844974       -4.33421465382793
H           -7.16062534447738       -4.09518400805600       -2.62185505881718
H           -8.96644451946027       -7.05056365481563       -0.72967616533614
H           -9.51148123063566       -8.91124911454325        0.76952263406462
H           -9.33907807492553      -10.00928408872795        2.84577176360496
H           -8.42827809022324       -8.28496113626320        5.16084291444506
H          -10.23922560447354       -8.17052691492666        6.93931327248297
H          -10.01803533515079       -7.63845856880394        9.32566283021437
H           -8.70096156524536       -9.10287058330728       10.79512120664775
H           -7.59623083672753      -11.09478874189849        9.87216495799510
H           -7.80602265217976      -11.61980300476448        7.48253760009768
H           -7.53908100726488       -6.88670232601233        3.96870709222669
H           -7.02377490748558       -5.03215900061767        2.46763700432512
H           -5.29205052944351       -5.80332279927128        0.57652235433861
H           -3.17755978500319       -4.59761256768715        0.72500612981937
H            0.45276610157361       -3.83631771835079       -1.18445535511146
H            2.42375826461853       -5.28578333264828       -0.97817633314702
H            4.03529744527078       -4.91862293611661        0.84037305538267
H            3.66842213819403       -3.10499172039940        2.45785237483195
H            1.69022021728128       -1.66265442710750        2.25829811442528
