51
 energy: -11.459726634375 gnorm: 0.000758211247 xtb: 6.5.0 (97a52f5)
N            2.65839835491418        0.37340310246020       -0.53365345163904
C            1.58127492822704       -0.06034907154417       -0.44710040822439
C            0.29241772879889       -0.56836931718350       -0.34932784992163
C           -0.70812763681563        0.35362794605676       -0.61659834822328
N           -1.55368463778340        1.12119458630612       -0.84344844805451
C            0.06252749376037       -1.88846413387330       -0.02313825125065
C           -1.25330468709214       -2.48830917910969        0.03774370807117
C           -2.42359538960816       -1.94927894274284       -0.35031566582057
C           -3.69084164689513       -2.63010184519528       -0.24611570062334
C           -3.97955140320705       -3.72011826649180        0.53014793778532
N           -5.33148594760028       -3.94270521451839        0.37273962702388
C           -6.09007945058849       -4.99036812717509        1.01252385047146
C           -7.21274271293784       -5.50132923485903        0.38158381484334
C           -7.95557743227565       -6.49861155748091        0.97362689115873
C           -7.58425330721812       -6.99386616243982        2.20702484613883
C           -6.47090517120790       -6.48775440802429        2.84671279312425
C           -5.72739949742174       -5.49061774513929        2.25461391200212
N           -5.90158361335856       -3.07290915509822       -0.46409353791973
C           -4.93595578429468       -2.26815068427883       -0.87206386953178
C           -5.15290518192668       -1.20222713062564       -1.85658434265217
C           -6.39738916066933       -0.57884089409595       -1.93338328821677
C           -6.63464656835993        0.40578552686881       -2.86218396903878
C           -5.64119270413180        0.78512213268443       -3.74521204989713
N           -5.89691872722588        1.83005031068877       -4.73724760486995
O           -7.01341334859279        2.36797724224930       -4.75884146169346
O           -4.98906646833574        2.13967290710763       -5.52217519359047
C           -4.40813601757514        0.16272985862077       -3.69337513625309
C           -4.16456064594831       -0.82051516587896       -2.76474550584936
C            1.20419178984381       -2.78459150133408        0.28876296977447
C            1.34146509471429       -4.01022928476727       -0.36281858207550
C            2.39115657674765       -4.85096536205993       -0.07066680985614
C            3.32351046522846       -4.49013684115907        0.88020487610137
C            3.20176977676796       -3.28478681694394        1.54038612214022
C            2.15366852835656       -2.44134370489123        1.25091202440882
H           -1.28160920252596       -3.49478565225025        0.41622983018975
H           -2.44525777658494       -0.94948494846344       -0.73717086026527
H           -3.31301007287235       -4.27460149107998        1.16652258911941
H           -7.49227360215098       -5.10357660581699       -0.57840658612134
H           -8.82678641058369       -6.89031699048259        0.47460418954791
H           -8.16485128653041       -7.77415546046035        2.67141989452164
H           -6.18400295157473       -6.87083605611887        3.81241220971961
H           -4.86856424524327       -5.08226441250267        2.75779444051761
H           -7.17187560121339       -0.88268006467505       -1.25050295404875
H           -7.59349221933097        0.89258111635870       -2.91886040815749
H           -3.64681976975689        0.46009825303391       -4.39457265973509
H           -3.21580588991713       -1.32698156880432       -2.75798502545044
H            0.61972593149395       -4.28711624384368       -1.11197216569603
H            2.48624640733408       -5.79224283069371       -0.58710107121996
H            4.14588944274852       -5.14896175959750        1.10666509160631
H            3.92987430394853       -3.00188919669571        2.28304667716119
H            2.05606934645961       -1.50224995403685        1.76787291047276
