49
 energy: -10.981047256352 gnorm: 0.000596917109 xtb: 6.5.0 (97a52f5)
N            2.59558923733940        0.42846409007977       -0.58555729659116
C            1.52446944758394       -0.01642535816900       -0.48016266377960
C            0.24069678083991       -0.53498836598669       -0.36248024377491
C           -0.76987994859479        0.38050405298638       -0.61848875675658
N           -1.61758727131616        1.14929771904605       -0.83384961980778
C            0.02313415667374       -1.85581448302481       -0.03042451101232
C           -1.28816945956731       -2.46532173247830        0.03998129599563
C           -2.46222893433262       -1.94695387492987       -0.36388588227178
C           -3.72092209347866       -2.64201552704257       -0.25408009170346
C           -3.99456482647768       -3.73854870695486        0.51938227270407
N           -5.34437608987881       -3.97721021857292        0.36474161176637
C           -6.08906822863637       -5.03181015187834        1.01068230236547
C           -7.22482730782843       -5.53832692645480        0.39908876480985
C           -7.95657478940205       -6.53891611226577        1.00001095928925
C           -7.56123914349759       -7.04221945778143        2.22325639795192
C           -6.43427127692344       -6.54075634354205        2.84367224993165
C           -5.70171305973725       -5.54069236550837        2.24224170280177
N           -5.92862147802704       -3.10861024133127       -0.46726120959259
C           -4.97277343680300       -2.29053502616272       -0.87181366033318
C           -5.19928990256322       -1.21328668564141       -1.84565394428626
C           -6.42571799180161       -0.55363359260556       -1.87435823672335
C           -6.67017230923858        0.44045888835621       -2.79496037661861
C           -5.69864338229917        0.78754888196946       -3.71195991829615
C           -4.48320785861873        0.13334058548040       -3.70884606580863
C           -4.23398587445909       -0.85843753179887       -2.78708920194435
C            1.17085539134956       -2.74634812034016        0.27450830717433
C            1.28632443764827       -3.98947216371386       -0.34806284950082
C            2.33814850150193       -4.82921315685548       -0.05927358616392
C            3.29527710850213       -4.44978757261605        0.85967733688951
C            3.19526960875426       -3.22697251867491        1.49168591026365
C            2.14426294381117       -2.38517092452659        1.20590416001099
H           -1.30823071301471       -3.46519575537671        0.43645802729725
H           -2.49257457449468       -0.95665746467165       -0.77398617798532
H           -3.31800217861134       -4.28528244718383        1.15154016762089
H           -7.52402777051937       -5.13318282319468       -0.55168884163919
H           -8.83782599367081       -6.92723274395877        0.51597620817045
H           -8.13365872742216       -7.82403484273272        2.69485485545339
H           -6.12832882828289       -6.93042986980438        3.80092520522433
H           -4.83059550380057       -5.13809964912185        2.72866917573892
H           -7.18146088508132       -0.83431847437478       -1.16149097803531
H           -7.62152928412652        0.94672655240538       -2.80119949505369
H           -5.89064974261174        1.56523445119799       -4.43290991671427
H           -3.72783418142199        0.39836390537714       -4.43046469668957
H           -3.29764525378170       -1.38768643363324       -2.80683779906571
H            0.54375052808203       -4.28230145574726       -1.07020539209782
H            2.41501945098062       -5.78444920734809       -0.55243444114585
H            4.11922116284218       -5.10739801521850        1.08358023223211
H            3.94234828601737       -2.92999838506034        2.20947383106984
H            2.06179125839757       -1.43455440060634        1.70386487865090
