56
 energy: -12.785809699472 gnorm: 0.000843272580 xtb: 6.5.0 (97a52f5)
N            2.16170138906727        1.59781779201129       -0.18058968895323
C            1.18278073464895        0.97451138875008       -0.08995580976967
C            0.00429964037951        0.24306623292451        0.01785201201956
C           -1.15415793460186        1.00669503063726        0.12001565640632
N           -2.11651425605217        1.65584133311860        0.20632985041644
C           -0.01458889190609       -1.13361430299162        0.02301214218494
C           -1.28885352382429       -1.88452496354148        0.05467466202672
C           -1.42136753147162       -3.01183297029791        0.86843279135273
C           -2.58874219240768       -3.73468164362243        0.89220062184337
C           -3.66644432097758       -3.36515463700745        0.09607318839304
N           -4.88976305201296       -4.12160902304704        0.12485573669272
C           -5.54877839136801       -4.56642620135945        1.26773486076180
C           -6.69054777044769       -5.21804343227932        0.91670452932486
C           -6.77862356059459       -5.20469933386008       -0.50265061663665
C           -7.72533473818846       -5.72550004700321       -1.39840544901192
C           -7.51796052230069       -5.56173933157873       -2.74253379201107
C           -6.38327736181093       -4.89234636200918       -3.22236024983856
C           -5.45012494328005       -4.37463278030396       -2.36247729242651
C           -5.64920172175437       -4.52208967985611       -0.98639383409863
C           -3.54167739450587       -2.24742658633791       -0.72060787377011
C           -2.37523265055226       -1.52349930487048       -0.74451861600246
C            1.23743488551966       -1.92103539939469       -0.00366334559023
C            1.33411920932579       -3.06046752735141       -0.80548584213155
C            2.47915195391379       -3.81828990048560       -0.82354884256984
C            3.56941764163672       -3.47292479207028       -0.03372558056640
N            4.76752578190966       -4.26903044200273       -0.05466988055979
C            5.40609326772498       -4.75467702062787       -1.19248287646216
C            6.52207748133971       -5.44595285529746       -0.83463720358295
C            6.61376318758665       -5.41715157025878        0.58425059921704
C            7.54021296949899       -5.96460174535314        1.48522944826278
C            7.34202543094391       -5.77569329423087        2.82739700825118
C            6.23651799854225       -5.05444917248016        3.30015372697164
C            5.32359794097817       -4.51024185485993        2.43499019715821
C            5.51351321424084       -4.68353465261211        1.06060679559784
C            3.48087488601291       -2.34240318188151        0.76997294710437
C            2.33662529285270       -1.58356338968308        0.78834235859622
H           -0.59007429434122       -3.30833847908980        1.48448979487275
H           -2.67992081114334       -4.60317639101682        1.52065762337734
H           -5.19542182305688       -4.39544721913184        2.27097057593317
H           -7.40458454048694       -5.66773747192423        1.58543095024336
H           -8.59014303999534       -6.24256233070249       -1.02204381996729
H           -8.23385297709185       -5.95755517262739       -3.44385350104111
H           -6.24211400901064       -4.78720438686951       -4.28544793348257
H           -4.57088315746486       -3.87452590870640       -2.72637028499271
H           -4.38086651814872       -1.94629422734740       -1.32253002661599
H           -2.28671588722119       -0.66641894983007       -1.38880626021051
H            0.49291447207307       -3.33844924365588       -1.41667742428787
H            2.54231825399473       -4.69655898799623       -1.44180963545232
H            5.05767297592681       -4.58291373900723       -2.19729571452273
H            7.21712293675749       -5.93138827236328       -1.49839856874055
H            8.38215700386380       -6.52163837384522        1.11411546424991
H            8.04231532643925       -6.19162402736725        3.53278800284899
H            6.10200013177155       -4.92994034698347        4.36200212138758
H            4.46607462364086       -3.97032222134822        2.79374180120442
H            4.33041388188992       -2.05979301656695        1.36633295850482
H            2.27522530356137       -0.71762561251323        1.42380153805850
