72
 energy: -14.108033068456 gnorm: 0.000365648757 xtb: 6.5.0 (97a52f5)
C            0.66996878849122        0.34068015320430        0.02317232885457
C            2.19284661868377        0.13015336059014       -0.07083757951152
C            2.87941404606875        0.75856002561820        1.15640325197474
C            2.47381677963765       -1.38526568740526       -0.06069279465389
C            2.72213380346283        0.80209732905518       -1.34847723673169
C            3.37815863143756        0.08789734200878       -2.34445169926815
C            3.86245338630399        0.70650843634358       -3.50047870879955
C            4.54541176349632       -0.01721958972729       -4.52824612799182
C            5.01712391462703        0.60920353991055       -5.63072107093262
C            4.85052978330541        2.01842311635003       -5.81339718264900
C            5.34227849026918        2.68615985250749       -6.93807912132726
C            5.18972171905703        4.05527689869144       -7.09675946140831
C            5.71487517614426        4.80882960504446       -8.32890851919696
C            4.53987842603449        5.51717860915101       -9.02968555889654
C            6.75452894307948        5.85313695575761       -7.88225152037142
C            6.38133315406984        3.85717759310350       -9.34098606938954
C            4.52639189602563        4.76465583436410       -6.10488467512214
C            3.98697463290630        4.15326656797940       -4.97661859863214
C            3.27260322712313        4.89390030677601       -3.95577928156548
N            3.01769329065851        6.29788152791704       -4.09152992622326
C            2.55210058013774        6.84634636500844       -5.33607923750266
C            2.97956648343751        8.10097027690139       -5.76458729591882
C            2.56188161726057        8.60962540364544       -6.97395125670370
C            1.70948046973154        7.87633280065899       -7.77695474130635
C            1.27528753237901        6.63096398050141       -7.36512081921355
C            1.69160857901674        6.12005951194431       -6.15626004237518
C            3.09937401441025        7.14746337692614       -2.93559971078675
C            2.19123265552184        8.18623510985328       -2.74432409528105
C            2.26032643768179        8.98354103901334       -1.62362797459401
C            3.23775179752046        8.75935126041967       -0.67310161852161
C            4.14721170564431        7.73415853262913       -0.84887627471677
C            4.07963061576252        6.93564719629554       -1.96875986616508
C            2.82584345396806        4.23331725622316       -2.84058222643476
C            3.00904516509788        2.83792308771271       -2.65619425027431
C            2.54631311755039        2.16740887952598       -1.51942961846000
C            3.67663714886826        2.09779954713242       -3.65932519931283
C            4.16803695200695        2.75902634439894       -4.82036835858109
H            0.26378546077051       -0.14310997423599        0.91125051120400
H            0.16875136289343       -0.07899738037861       -0.84878373531617
H            0.41810032135394        1.39898282845583        0.07710239453229
H            2.53373194615899        0.29140061140685        2.07830370994108
H            2.66981123185726        1.82522111967309        1.22541581070597
H            3.96041350080292        0.63289043764209        1.09918536563985
H            2.09106839677351       -1.84270059786640        0.85154797331213
H            3.54386677296675       -1.58663237040961       -0.10516744105403
H            1.99168759611361       -1.87963396690536       -0.90374868097530
H            3.52874898348815       -0.97019252819391       -2.23845779987271
H            4.68163114465183       -1.07804925072492       -4.40673270632150
H            5.53227051938025        0.05000776831420       -6.39271527599354
H            5.85305928280645        2.10936442016764       -7.68643912680371
H            4.07715184324237        6.25612759024979       -8.37737875412395
H            3.77306548075913        4.79853864480651       -9.31746540083125
H            4.87458987263092        6.03278278068494       -9.92940563559370
H            6.31550707024872        6.58414008091231       -7.20439879193591
H            7.15697537103084        6.39351349600350       -8.73882095667132
H            7.58491841857582        5.37305294200385       -7.36500992218403
H            5.67715244640936        3.10356378695711       -9.69278163695987
H            7.23895361222738        3.35103060755171       -8.89851096289889
H            6.73722704578892        4.40723270341494      -10.21195789529054
H            4.41835991437133        5.82630795313684       -6.21088763390917
H            3.65387961019372        8.66139780188114       -5.14061999532821
H            2.90289285062816        9.58016425746957       -7.29597452687689
H            1.38553410645151        8.27417633281947       -8.72497017009171
H            0.61352589585007        6.05655716876257       -7.99284016141466
H            1.36283510314601        5.14809677756620       -5.83196899030056
H            1.42424895740387        8.34915248487737       -3.48125794395209
H            1.54886772266918        9.78165170155975       -1.48606020752653
H            3.28977657136343        9.38287185064650        0.20476695737229
H            4.91025190418918        7.55847994416754       -0.10795006384444
H            4.78719476506911        6.13769619935855       -2.11304103767327
H            2.29868301109729        4.78825865092091       -2.08692351236580
H            2.04030710978771        2.73646338121587       -0.76099161861056
