72
 energy: -13.206551807234 gnorm: 0.003589241611 xtb: 6.5.0 (97a52f5)
N            1.69695354691415        1.43227663637321       -2.13647992064436
C            1.05500817556933        0.75712781588527       -1.43730689183005
C            0.27950478942094       -0.03139733670289       -0.59620417584041
C           -0.67261398742825        0.67859199004256        0.12375972304774
N           -1.48140720823106        1.28857071521954        0.69873465272558
C            0.44318474766585       -1.40117930063813       -0.51915409972876
C           -0.41083881414275       -2.25956006278976        0.33165039043790
C            0.16897343162829       -3.41635123279617        0.87940316574896
C           -0.39720048037727       -4.44765881107002        1.60216404036709
C           -1.70600637080812       -4.69468549274407        1.85222754993820
C           -2.78667374032178       -4.00973772039646        1.47919209646798
N           -3.78564157362164       -4.46543977175299        0.85509750677238
C           -4.64340577968785       -3.70128310847237        0.17541368063248
C           -5.71875033932409       -4.16234035250484       -0.56358631725057
C           -6.60667390136854       -3.39369567229829       -1.30403936044476
C           -6.62447133155851       -2.01411617721594       -1.46153671145673
C           -5.77023002859868       -1.15536627810149       -0.89974567482104
C          -12.12967918801695       -1.60554540063587        4.06994740039741
C           -2.07789268587625       -4.03088325272588       -3.49068263398395
C           -2.70540262490632       -3.13990521223106       -2.77623273268239
C           -2.46425274410933       -1.77356881379242       -2.79951045827696
C           -1.52345050447506       -1.12011576355813       -3.57911678403764
C           -0.70855536812036       -1.72033473830724       -4.44786414866968
C           -2.35096502387057       -3.75852785243311       -8.51431552669465
C           -1.70049282410973       -1.93247600951475        0.56099727120845
C            1.49688986358607       -2.08058868789428       -1.31564672458745
C            1.12079667156117       -3.18090994459852       -2.10574399639618
C            1.93168810522475       -4.04658967524781       -2.81337508725750
C            3.27447647150826       -4.20940224104536       -2.66783870565397
C            4.03052996906863       -4.01502016680022       -1.58374140014679
N            3.74833034499743       -4.37741745847408       -0.40924356569524
C            4.35019775059899       -3.92916127203593        0.69438681858650
C            4.05305547538485       -4.33641082560691        1.98294112085173
C            4.66220490341409       -3.90431954717401        3.15405115297477
C            5.68236713450217       -2.97347724080109        3.29755006199659
C            6.27100666859290       -2.30755752253343        2.30128745473748
C            9.36874096890835       -0.66066005187228       -1.65578653553305
C            2.76306518039940        0.53175380892502        2.09916850701011
C            2.90756060304656       -0.74518431588265        2.31221206904434
C            1.98123849133779       -1.56928979701933        2.93298272700173
C            0.75180601239208       -1.18468408717088        3.44001804920600
C            0.28877651667023        0.06536146881755        3.43416220747093
C            1.92734784442175       -3.52524603370218        7.94916312125323
C            2.76714399220457       -1.61645193940553       -1.29616689355266
H            1.23158633201041       -3.49825449637685        0.70801416442372
H            0.28202161825001       -5.19668863548837        1.97999603324727
H           -4.46088001422419       -2.64157708420713        0.19188795226308
H           -5.87341419543855       -5.22934527399938       -0.56500217301859
H           -7.38180292979047       -3.93736228174535       -1.82307380510380
H           -7.39997758398934       -1.60112006403281       -2.08903611435766
H           -5.80309976657649       -0.11249874471118       -1.02348263071195
H           -2.97987071609514       -2.82028250618323        2.64633910143628
H           -3.46800654784146       -3.50095084254697       -2.10311032897451
H           -3.07403382774349       -1.16210549436869       -2.15286011840543
H           -1.44012613097524       -0.04924480735715       -3.47028115214048
H            0.00759215675907       -1.22108160949049       -5.03280188043174
H           -1.35866290616293       -3.77182084734776       -8.76128363644003
H           -2.18002340538713       -1.09246735938192        0.15655864610680
H            0.05610022194500       -3.31994785849413       -2.21054846986468
H            1.45390847537472       -4.68305962909455       -3.54403756516770
H            5.12929177923955       -3.20042484087797        0.56194733991928
H            3.26969637554659       -5.07103674949205        2.07895832081239
H            4.29450253769824       -4.34721310420629        4.06760470146540
H            6.02691925755204       -2.76974673310290        4.30047216768272
H            7.04349590500362       -1.60612295046240        2.42480581413801
H            5.43199125367025       -3.36820314715685       -2.12595376583552
H            3.83312397309561       -1.19256941274520        1.98863952600162
H            2.24280009557200       -2.61054176627520        3.02245125974675
H            0.12355874550989       -1.95219398360420        3.86362437209234
H           -0.64761425072885        0.35579347057282        3.81060658160255
H            1.14162846178979       -3.79141672962325        8.54704823170955
H            3.06990197704027       -0.80074984273759       -0.70999499032252
