38
 energy: -8.609256211809 gnorm: 0.000794005151 xtb: 6.5.0 (97a52f5)
N            0.67162448091965       -0.35878066929184        2.64470699494199
C            0.56193661117112       -0.26827057001600        1.49150676375381
C            0.44311375156221       -0.18460903950053        0.10251283135211
C           -0.20740490683969        0.93481773728499       -0.42197562780589
N           -0.74693028317013        1.86296818101306       -0.86670137438811
C            0.92004801206903       -1.12514930455700       -0.74107981691339
C            1.61161761295241       -2.33896890023046       -0.37615995723772
C            1.92850365787820       -2.78428082073260        0.90547613565834
C            2.58553924111505       -3.98639688267339        0.77476462827518
C            2.66257033098900       -4.26333130575790       -0.58704617796798
C            3.27218145058795       -5.43205840985063       -1.21821196297043
C            3.83431930093035       -6.47665580895071       -0.48520569776330
C            4.39416001202522       -7.55174694441292       -1.12821449822298
C            4.42962851487442       -7.65080702014395       -2.51917024425673
C            5.04726341943372       -8.83551869400733       -3.08617002621297
N            5.52142811519022       -9.77368186630429       -2.31323320683516
C            6.07425722600645      -10.82754413558912       -3.01755776548093
C            6.65960507935008      -11.96854683605240       -2.45171808375614
C            7.18017309246493      -12.93734472539917       -3.27163881941978
C            7.13440900696369      -12.79994812262556       -4.65757958259706
C            6.56424344906181      -11.68871489021472       -5.23014167437300
C            6.03496955674304      -10.70431990485989       -4.40937270072183
S            5.26141731347348       -9.20755350165821       -4.80838819214096
C            3.85703480852339       -6.58957782954907       -3.27576207237075
O            3.81992188005429       -6.55679895139825       -4.64917404940679
C            3.29330637848889       -5.50956574512504       -2.59850339766234
O            2.06652306134748       -3.25231448095266       -1.29334763958467
H            0.77704813487457       -0.97121644262545       -1.79628855151510
H            1.70421984554132       -2.28120459695057        1.82923876036370
H            2.97134081304253       -4.59091627001710        1.57775578108233
H            3.82532056390239       -6.43735579978903        0.58968789059129
H            4.82435019464558       -8.35381823037041       -0.55359332314627
H            6.69107011505271      -12.06563379746769       -1.38099711547984
H            7.63045712580569      -13.81621082407635       -2.83996217779157
H            7.54971447325453      -13.57191369892295       -5.28471809228497
H            6.52285497423472      -11.56945604127980       -6.29920716286454
H            4.24731831779376       -7.36486634157220       -4.99237253550609
H            2.86180526768811       -4.71099851538138       -3.17440825934338
