38
 energy: -8.732687277163 gnorm: 0.000741183010 xtb: 6.5.0 (97a52f5)
N            0.21469858134252       -0.54067130312171        2.59432716217038
C            0.18720014732149       -0.43215030216048        1.43780619874320
C            0.17255575995869       -0.33524064235144        0.04451118761162
C           -0.60685993893994        0.66888343561696       -0.53502606112355
N           -1.25571970990282        1.49999175672774       -1.02330285763658
C            0.88032089064254       -1.16749072448020       -0.75147795254209
C            1.71281973798730       -2.23468570444930       -0.30876403199282
C            2.02155040387812       -2.72715219843978        0.94903353654865
C            2.90896647380118       -3.82938460715140        0.96477087893108
C            3.33300041755405       -4.24438970030465       -0.28403693416395
C            4.20870678595653       -5.28800834561420       -0.74508544770585
C            4.83628820273147       -6.19093031678847        0.11412595708477
C            5.65785233934898       -7.16525116782889       -0.39423636814304
C            5.90101219966193       -7.29570006377357       -1.76248960762712
C            6.78511909127205       -8.36921952589725       -2.17776265228327
N            7.29432108101429       -9.18774026865113       -1.29843053410694
C            8.11058231506054      -10.15102869400932       -1.86210255578885
C            8.78731453223619      -11.15778336191343       -1.15986399294227
C            9.56961231042850      -12.05071481319183       -1.84742106048433
C            9.69827799498389      -11.96761365968132       -3.23267986447117
C            9.04219158944128      -10.98729946371136       -3.93735513922658
C            8.24912698167729      -10.08015289761079       -3.25100460870404
S            7.30620222662444       -8.74795719300800       -3.83107747583822
C            5.26402183183267       -6.37661059423896       -2.64464924028537
O            5.41162670173773       -6.38939101264180       -4.01075625195441
C            4.43197102306057       -5.39663039380010       -2.10535216180555
S            2.57617095531462       -3.21279421245523       -1.33618076053923
H            0.82140432524285       -1.02653184165532       -1.81776062701046
H            1.61107539795716       -2.29778725275519        1.85366324020424
H            3.23170635603354       -4.30918958813118        1.88049692215535
H            4.66967871849054       -6.11865340484352        1.17471280025304
H            6.13801075469412       -7.86058509292241        0.27262911371608
H            8.68212549976249      -11.21339333663410       -0.09064162472930
H           10.09181298608132      -12.82616263720179       -1.31076284189422
H           10.31776807493160      -12.67873396928803       -3.75473361281904
H            9.13323987665998      -10.91107718482663       -5.00746379713709
H            6.01713289756587       -7.11521446823332       -4.25429880039511
H            3.94548418654588       -4.70140524857613       -2.76726013407096
