38
 energy: -8.739019851881 gnorm: 0.000764055006 xtb: 6.5.0 (97a52f5)
N            0.18232224263767       -0.40525909888186        2.12365588326455
C            0.31954178051215       -0.32918428287510        0.97235371800024
C            0.51453453864703       -0.26948585804246       -0.40900904806226
C           -0.12262799797313        0.75203852594003       -1.11703047751326
N           -0.65270910232313        1.59652826351835       -1.71377002865514
C            1.29279323681107       -1.15223040923148       -1.07410935372022
C            2.00233768858016       -2.24073147984223       -0.49145074146883
C            2.09947314027212       -2.71247899589118        0.80707156055898
C            2.92647826561151       -3.84971662388497        0.97769077556657
C            3.51217188183486       -4.30986115611233       -0.18587329440462
C            4.40480749848979       -5.38684137629463       -0.51678518102729
C            4.88850772297728       -6.30577994746594        0.41685676744328
C            5.74453502725841       -7.30342894260635        0.02638440586360
C            6.15929777911460       -7.42996831661023       -1.30598252244961
O            7.02180744432312       -8.43548728706219       -1.68155400305031
C            5.66958083986426       -6.49566651261385       -2.26017248654147
C            6.04960672953079       -6.53897891516243       -3.65262700219012
N            5.61372758466783       -5.69711381599818       -4.54522694455879
C            6.13324506056026       -5.94923514384807       -5.80634916255412
C            5.84513251348117       -5.21466221790092       -6.96504514008248
C            6.42862567456182       -5.57242811343032       -8.15393711800290
C            7.30287566408283       -6.65565237223469       -8.22340591200972
C            7.59739725622701       -7.38958568172160       -7.09989879386287
C            7.01181491723655       -7.03703253145626       -5.89354929148772
S            7.15266648072353       -7.73278547081829       -4.31396047016270
C            4.80190255214262       -5.49956903990674       -1.83793166770729
S            2.96516755308635       -3.27995908139381       -1.36082756173067
H            1.39939823786052       -1.03640238984187       -2.13967322487217
H            1.57926277345074       -2.24317291059902        1.63166626786392
H            3.09126561466479       -4.31895129070381        1.93961753884734
H            4.58372058302215       -6.22337529092034        1.44569694105900
H            6.11010605662366       -8.00528734017706        0.75424969152241
H            7.26477548081848       -8.99292293708468       -0.92009072959902
H            5.16939202431245       -4.37997259886536       -6.90196288138710
H            6.20841136888445       -5.00955459391617       -9.04638680114217
H            7.75120826048343       -6.91939379208006       -9.16749579224424
H            8.26990528454647       -8.22911360421083       -7.14031746281595
H            4.42164034239678       -4.78298736976567       -2.54715045668237
