38
 energy: -7.633346454618 gnorm: 0.000691774830 xtb: 6.5.0 (97a52f5)
N            2.15541842564595       -1.42077120017015        2.64938438440913
C            1.52704999513970       -1.10151762612914        1.72569756634777
C            0.78678101110132       -0.73895111802017        0.59874504533810
C           -0.10363213654771        0.32958786222003        0.72524403543237
N           -0.84591382852970        1.21861622250599        0.81911728270926
C            0.89126623943170       -1.36535786561596       -0.59301414655336
C            1.75178345675738       -2.48063944804480       -0.90827066328888
C            2.63435721537649       -3.14158679233895       -0.05721256016609
C            3.24096734082586       -4.14025891423799       -0.78634159730623
C            2.72222558787758       -4.07507361788337       -2.07511077436187
C            3.08143921039884       -4.92665061157138       -3.14460219708246
C            2.55040415476531       -4.87355519815365       -4.38638319809206
C            2.91895973707090       -5.70135491723497       -5.41758813857204
C            3.85893757225216       -6.66235951082053       -5.30456953388558
C            4.55211846471876       -6.95225986904625       -4.22442953676025
C            7.25921192158939       -6.79295244213537        2.91772483177949
N            7.15043042661374       -8.04784933165174        2.58763534123243
C            7.98929424411114       -8.92495927808016        2.68040371104292
C            7.48204313134721      -10.09969664338533        2.23116665756534
C            8.05738362865643      -11.32571535484961        2.15826621234359
C            7.43408478634059      -12.39201506961467        1.70389181720519
C            6.15224169714588      -12.48528049302166        1.23829842563909
C            5.29678707181333      -11.42364562877437        1.17738973165444
S            5.90142903842878       -9.96939233434585        1.71139073659787
C           -1.31010461726250       -4.85893209464901       -0.47486851447640
O            0.75813029137579       -7.62752956948262        6.78113906381445
O            1.80940825000111       -3.05799115099598       -2.15344133360060
H            0.27747404168807       -1.00916598642597       -1.40185106419942
H            2.80894447271895       -2.91631529319446        0.97977601355049
H            3.97422129965728       -4.84657637518544       -0.43445280875564
H            1.79069426505425       -4.12829819721742       -4.56348135067152
H            2.43851280986931       -5.58576843709269       -6.37562577339839
H            5.13681468569820       -7.65239611046144       -4.39914622657554
H           14.46570161933452       -8.38144963945050       -2.30055122742101
H           13.54734009164982      -17.02358152325697        1.28832290635104
H            5.80992001258297      -13.45455732660347        0.90371882383088
H            4.28944770259130      -11.49530356839040        0.81295794505275
H            0.49175663790363       -8.56052559067857        6.77458012486198
