99
 energy: -19.070889075630 gnorm: 0.000340511080 xtb: 6.5.0 (97a52f5)
C            3.20980485741318        1.43308483918643       -3.40817885556869
C            4.66255145178420        1.94098872709577       -3.32489689411961
C            5.57555870624134        0.73747261122996       -3.02056286385498
C            5.07757539977089        2.54571896435615       -4.67727689608097
C            4.75922606901661        3.01748802139211       -2.23338316617302
C            5.65393977390272        2.94582412655407       -1.19131352812351
C            5.67695569368699        3.90735437140087       -0.16727546168466
C            6.70804333675448        3.87429993839696        0.81805974876086
C            6.76958861558505        4.80724445528773        1.78771423902741
C            5.74387068852743        5.79019647175374        1.93148428819681
C            5.79086216545953        6.68748061363672        3.01080972096229
C            4.75060744244444        7.54377921975734        3.28927487636476
C            4.79257064958145        8.55564008951988        4.44474642834177
C            4.51835010683636        9.96791024242518        3.89334437565288
C            3.71881449171772        8.18809246051782        5.48424570892871
C            6.16692411591699        8.56955368697132        5.14187490003194
C            3.60753291274972        7.44275484184622        2.50216002648242
C            3.51674578275230        6.59768318636844        1.40778380228470
C            4.64851414687190        5.80789617576448        1.03279152995413
C            4.70864994423333        4.94132541863465       -0.13887951621238
C            3.90173809885645        5.09243385277574       -1.30079377269816
C            3.92833444858057        4.13520884945033       -2.29238102934225
C            3.06658895984152        6.29220571681239       -1.54814495738410
O            3.24991850952629        7.01322275911463       -2.50894976265126
N            2.00295728677821        6.49611827013910       -0.60966367903505
C            2.19955501939541        6.47940360111160        0.77331489709660
N            1.04865642463187        6.39536171641703        1.43101843913687
C            0.07942603902032        6.32725228228412        0.48662776201293
C           -1.33774639713705        6.09031153576554        0.65116971332336
C           -1.91272737996197        5.87290576437220        1.89442367851123
C           -3.26862048926482        5.59178718913294        2.03397582340840
C           -3.90207930987627        5.27717635383496        3.39837956725473
C           -5.04947623419908        6.26630662889469        3.67413152750097
C           -4.45102343143371        3.83804502885997        3.37807592593581
C           -2.87755574648844        5.38975643770537        4.54436747291118
C           -4.05414178845399        5.55609208316951        0.89363681562188
C           -3.52354075736730        5.76991709743273       -0.38287568013963
C           -4.33329614607635        5.72407988547672       -1.56200389718375
C           -3.79804403728721        5.90768016129741       -2.78945699411227
C           -2.39722252248309        6.14282955022657       -2.96107511185656
C           -1.82191075153651        6.33125580452379       -4.22290406064416
C           -0.46415368255123        6.55161633589914       -4.38684482128572
C            0.10787707659957        6.79502696004330       -5.79206310210564
C           -0.18791407480996        5.57648154402344       -6.68502005258291
C           -0.54685107126654        8.05199429240159       -6.39444196768309
C            1.63379487055699        7.01201491080142       -5.75661882580737
C            0.34007976511013        6.56787983731776       -3.25443632731295
C           -0.17861976448390        6.38864204965007       -1.98093771856958
C           -1.57020041606987        6.18736632617659       -1.81892577713583
C           -2.14185852090529        6.02153309089106       -0.51330403488141
C            0.63557103392977        6.42926355827809       -0.79550334656912
H            3.11387425844043        0.64515819621913       -4.15460765300462
H            2.52350991828148        2.23347073384008       -3.68089688482012
H            2.88810151766807        1.02928265388473       -2.44858360248371
H            5.46380018187010       -0.03451502269236       -3.78145076088811
H            5.32593722248206        0.29138498830557       -2.05818732371528
H            6.62414793007127        1.03239914660753       -3.00435340287942
H            5.02731840338314        1.79920781208531       -5.46944884436077
H            6.09843509206982        2.92378760008762       -4.63303179671176
H            4.42573912226791        3.37257108832744       -4.95588690549119
H            6.36417454584383        2.14113943689943       -1.14528622527594
H            7.46508689831467        3.11200738596388        0.74885225855543
H            7.57154711852141        4.78991968439014        2.50573860476088
H            6.66307016741017        6.67840517902513        3.63796767478129
H            3.53112977743467       10.03187873933599        3.43805857226932
H            5.25447140204902       10.23446069036702        3.13543491152903
H            4.56680773168188       10.71284263294712        4.68706293674226
H            2.72125646054778        8.21358630322220        5.04779892927692
H            3.73410960902672        8.88401562153084        6.32257129916737
H            3.88810535671135        7.18502572672237        5.87452950265724
H            6.96109127462267        8.81124372705678        4.43598171408543
H            6.38814811380644        7.60410353991405        5.59560572666039
H            6.19055706583925        9.31714397341499        5.93438188103875
H            2.74536740223835        8.03433623820356        2.75195449630843
H            3.28421164709776        4.27020001390802       -3.14273758188949
H           -1.27232092660761        5.90686848501422        2.75518981521367
H           -5.83406033771427        6.18397382322575        2.92349354270107
H           -4.68325385489101        7.29235959107721        3.66587932519063
H           -5.50075026604927        6.07672142097335        4.64759385878771
H           -5.21915246571839        3.71822957018663        2.61534889388202
H           -4.89113965077058        3.57421821686840        4.33921288611173
H           -3.65448945700413        3.12580760886457        3.16467693786419
H           -2.46193142819474        6.39522863383920        4.60156413000674
H           -2.05932832161891        4.68286299727832        4.41036910760294
H           -3.34578548755448        5.17111216396499        5.50368447352189
H           -5.10356656979141        5.34119186964403        0.98019058732652
H           -5.38807292503354        5.53939278336281       -1.45326496069408
H           -4.42370171106462        5.87256553430972       -3.66456653000882
H           -2.46268239078261        6.31029896802880       -5.08542917467535
H           -1.25937200892081        5.41125937687630       -6.78837827224184
H            0.25171559252119        4.67373848614261       -6.26197937338955
H            0.22477190226101        5.71671681242256       -7.68373743373762
H           -1.62464195015879        7.92909416237571       -6.49154092365552
H           -0.14507307976612        8.26495712405266       -7.38466143260162
H           -0.36476687980097        8.92086399035279       -5.76249425199135
H            2.14468951093558        6.14256579093532       -5.34426987178510
H            1.89316005097367        7.88173802180425       -5.15379267994262
H            2.02438226148769        7.17927778034907       -6.76003101432574
H            1.39381081317221        6.74357276216149       -3.33772433233156
