52
 energy: -11.499496519420 gnorm: 0.000788763557 xtb: 6.5.0 (97a52f5)
N            1.73403432861372        1.11863520239118        0.32574902617380
C            0.87332604207635        0.33735110334726        0.32419637445705
C           -0.14781075920848       -0.61426300776966        0.32557858155723
C           -1.45906486929766       -0.13306056827158        0.35779045988309
N           -2.55318549948658        0.25955840629551        0.38568838683841
C            0.04469670695748       -1.95315865579374        0.29954098722594
C            1.29868784241075       -2.68340434169338        0.26694934252179
C            1.26866891389384       -4.08052102276976        0.22727548681055
C            2.42592935665464       -4.81628069692185        0.19077987892591
C            3.67713410437425       -4.19354716662320        0.18350947692826
C            4.93064791514302       -4.97259968798325        0.15269347556152
C            5.06452930305075       -6.10734869105821       -0.63606538901225
C            6.20215366693792       -7.03683798850405       -0.45958435963334
C            6.85210637732059       -7.57811549383999       -1.56990668167482
C            7.90091168904530       -8.45634981286077       -1.41656252342186
C            8.32121476927996       -8.81900045399059       -0.15274505415763
C            7.68597984762204       -8.30311720327949        0.95868880742550
C            6.63593847831068       -7.42579805928729        0.80931634261499
C            4.08520015967035       -6.42938890478358       -1.69774676205899
C            3.63858695540395       -7.73971362176354       -1.87511906733899
C            2.73825429498705       -8.05020692867942       -2.86896662583756
C            2.26734342351946       -7.06276747798322       -3.71085117567827
C            2.70503692324963       -5.76246100046301       -3.55960075737794
C            3.60725744464814       -5.44831009950889       -2.56857141405739
C            6.04995601518829       -4.49350528067250        0.99696645547386
C            7.34649827165310       -4.38826433096721        0.49108603633329
C            8.37763495332988       -3.93559788234817        1.28284366226721
C            8.13699120789531       -3.57248243784494        2.59272516172755
C            6.85951872897492       -3.65928074927952        3.10852441346432
C            5.82549758704708       -4.11160212540941        2.32019442027243
C            3.70867541891486       -2.79794582148508        0.24050886736310
C            2.55109211416987       -2.06421308632942        0.27628020427710
H           -0.84430206779092       -2.56075851869702        0.30285405659968
H            0.31634301919567       -4.58249675349219        0.22472357914593
H            2.37950592611205       -5.89109079491935        0.16999728518821
H            6.52392386538119       -7.29347830230067       -2.55462004694644
H            8.39377922854665       -8.86221945218118       -2.28466647892477
H            9.14279082110005       -9.50635341583849       -0.03437020187550
H            8.01214826571527       -8.58835624714899        1.94543329250691
H            6.13490566554980       -7.03053833172020        1.67562431390000
H            4.00587079421171       -8.50820437029613       -1.21724223464981
H            2.40013003728779       -9.06622058274712       -2.99018030585633
H            1.56097945006050       -7.30695857582640       -4.48729630471013
H            2.33992501676630       -4.99193750933274       -4.21851140485207
H            3.95462894761912       -4.43620042165094       -2.45457625642257
H            7.53132426356662       -4.66688858355557       -0.53189127606091
H            9.37433202102794       -3.86548013877329        0.87912034081158
H            8.94543606757690       -3.21906737615746        3.21152531790738
H            6.67104560002766       -3.37270234226546        4.13022067942923
H            4.82885008243326       -4.18219342724456        2.72042463949741
H            4.66310175437047       -2.30044160764319        0.24558522556211
H            2.61302952889484       -0.99341536208176        0.31027974190214
