80
 energy: -18.187533780538 gnorm: 0.000786284716 xtb: 6.5.0 (97a52f5)
N            1.34870977177466        1.00692859875345        1.96899125608339
C            0.63745635828881        0.49032273418930        1.20796982218319
C           -0.20782391858380       -0.13862177821721        0.29324861532663
C           -1.41748241124598        0.49847209792058        0.00819799095651
N           -2.42674341856199        1.02365421889346       -0.23318554300196
C            0.06237824910949       -1.31190470153593       -0.32835193684665
C            1.23862335113569       -2.14828225424093       -0.19962056968207
C            1.30352384118709       -3.34473839237069       -0.92351374017221
C            2.39372152240652       -4.17192958689792       -0.83365896725259
C            3.47552880481165       -3.84598796070530       -0.01566039182910
N            4.60675426642748       -4.71344311696602        0.08147715814328
C            5.00350718431107       -5.50725509522763       -1.04848366849596
C            5.43795843935760       -6.82040500735353       -0.87981475890034
C            5.83675332388225       -7.57143823813583       -1.95874156124751
C            5.81275587980830       -7.03262646504424       -3.24018219614352
N            6.24662244165683       -7.81358427756583       -4.37185257882427
C            5.42916403441547       -8.60576837167781       -5.20065822237784
C            4.05873513721732       -8.85645580285197       -5.15534315603275
C            3.51013007419987       -9.68586134544800       -6.10214107984785
C            4.30259459283417      -10.27116026586119       -7.09461190632179
C            5.65485853707477      -10.03488191466634       -7.15166430930572
C            6.22857458203219       -9.19382661417437       -6.19620561293083
C            7.58404251501227       -8.74840851988521       -5.97574651214833
C            8.78396447203329       -9.00777225921109       -6.64089612284193
C            9.93612781472033       -8.42283922228542       -6.17373484540648
C            9.91622700970153       -7.58404541074409       -5.05502213433712
C            8.74477452764521       -7.31942016866165       -4.38952527361152
C            7.56724487396222       -7.90504998137800       -4.85152060531837
C            5.37674456366801       -5.72405641213750       -3.41404930532194
C            4.97902534402218       -4.97293959989109       -2.33514069875973
C            5.36573423944104       -4.79230207351389        1.29737254356465
C            6.74639525116615       -4.97690031007226        1.26179146931001
C            7.47497355012306       -5.05707514069500        2.42353313450144
C            6.84740781847805       -4.94957805607780        3.65942778588266
N            7.61123863791290       -5.02698347441628        4.87661770006413
C            7.71591735371330       -4.02061378281225        5.85664701124583
C            7.16037167781697       -2.74307760648611        5.91429253662773
C            7.44634279321779       -1.94878681876061        6.99716783971480
C            8.27806222807198       -2.40290851406898        8.02537705451989
C            8.83662937258320       -3.65735043913961        7.98174486961742
C            8.55631375100300       -4.47709712716738        6.88680287626224
C            8.97959631541122       -5.81124787954057        6.53508877779672
C            9.80164637460071       -6.73966900343887        7.17664651384059
C           10.01510177307613       -7.95650386500823        6.57559694231653
C            9.42433121914612       -8.26601904483313        5.34665116552976
C            8.61473879240286       -7.36333800409036        4.70250737260845
C            8.38988157819541       -6.12266865224094        5.29768203832607
C            5.46979607394283       -4.76716548552687        3.70041515614775
C            4.74021602522390       -4.69527323673842        2.53874642392413
C            3.42000588193395       -2.65171372886325        0.70249943317127
C            2.32991123263895       -1.82591316192390        0.61401189842440
H           -0.69179655861839       -1.67376749159211       -1.00636611695209
H            0.47730678645879       -3.61586800645603       -1.55814980662468
H            2.42106302125580       -5.09502779212906       -1.38552046419242
H            5.45174750148291       -7.23957684864641        0.11086826892540
H            6.17432708739645       -8.58461718858887       -1.82836905040337
H            3.45873549420737       -8.40166415997223       -4.38755323981838
H            2.45224249449002       -9.88967448075094       -6.08108131184440
H            3.84476587601838      -10.91790088033837       -7.82476077028353
H            6.27049138149911      -10.48255553462780       -7.91157839163778
H            8.79232570687698       -9.65409737276618       -7.50058623151252
H           10.87007433328549       -8.61269611885499       -6.67636614875872
H           10.83484629633470       -7.13883763180053       -4.70990933685006
H            8.71842202738979       -6.67663950260529       -3.52781842404411
H            5.36176163833681       -5.31015648203168       -4.40703606251587
H            4.65587180841564       -3.95568396238372       -2.46931384307761
H            7.23663488752746       -5.04770192311739        0.30686036335053
H            8.54162460571172       -5.19444086780060        2.39312537446118
H            6.52664404499591       -2.40008388375353        5.11630385784599
H            7.02498450379860       -0.95871562887545        7.05568718205225
H            8.48546680011216       -1.75764622709934        8.86304750642566
H            9.48055382954101       -4.01180509853291        8.76698235022060
H           10.25063012611375       -6.49555916349306        8.12307607314493
H           10.64595333949864       -8.68433409289328        7.05854185534008
H            9.60658404729554       -9.22902616910013        4.89872602570524
H            8.15286881365078       -7.59482303888619        3.75949126723342
H            4.98445847831699       -4.69382632714396        4.65783396932185
H            3.67192474799315       -4.57413376714435        2.57526070003716
H            4.25714158048796       -2.37893898810873        1.32083572506928
H            2.31828159575376       -0.91461085176167        1.18063899017487
