34
 energy: -7.982233696435 gnorm: 0.000762652699 xtb: 6.5.0 (97a52f5)
N            1.59405404257797        0.72191706777759        1.80395855494755
C            0.83789699797624        0.15742320768200        1.12599491316602
C           -0.05312266674296       -0.54057976796537        0.30784037529809
C           -1.31375797382626        0.03108273483461        0.11481171385365
N           -2.36392534752170        0.50038424505639       -0.05187524185284
C            0.22026999293451       -1.71366449714708       -0.30445936552030
C            1.44690358591483       -2.49271781791175       -0.26307299126927
C            2.58662815363767       -2.09760964251041        0.48133635748350
C            3.73392259479203       -2.83971778171085        0.50869239297636
C            3.78360701083582       -4.03081095449337       -0.22417511711053
C            2.66290123690600       -4.44493714209632       -0.97077176577665
C            1.50150975967766       -3.67549372000117       -0.98757032198935
N            2.97493881764346       -5.64599722672876       -1.60009682342339
C            4.27046008733522       -5.99947121055548       -1.27123037870213
C            5.05791926758817       -7.12834374625449       -1.66039271893376
C            4.57265271104945       -8.13682037540421       -2.50571398510470
C            5.36597962764620       -9.19538556974518       -2.84706362746892
C            6.66907014092261       -9.28469142166085       -2.35868582408509
C            7.16817992060822       -8.31664165280858       -1.53389634200716
C            6.37990617814541       -7.21267048588579       -1.16080564489815
C            6.88448328558025       -6.19044033940192       -0.29788521777408
C            6.12592473724673       -5.12374254144853        0.06577001702690
C            4.80369984926129       -5.02025633529838       -0.42002821425851
H           -0.57080431641880       -2.13107867598265       -0.90457952303367
H            2.55236079630778       -1.18449191145179        1.04414637412227
H            4.59081332257769       -2.52553797051212        1.07799534586940
H            0.65639044952693       -4.00486275951804       -1.56265817157050
H            2.34409884923832       -6.16241578295503       -2.21020146187411
H            3.56742552454978       -8.06726058519878       -2.88138038877445
H            4.98481181909777       -9.96648719375854       -3.49632023870459
H            7.28488875044062      -10.12481015271429       -2.63512341906799
H            8.17465809977468       -8.38992169380791       -1.15973140759839
H            7.89317606694358       -6.27930399419602        0.06613236898872
H            6.51403862777876       -4.35873430622663        0.71442977707030
