31
 energy: -7.247274424064 gnorm: 0.000753199205 xtb: 6.5.0 (97a52f5)
N            1.23502270295770        0.01878195771945       -1.37467174476373
C            1.14447764228425       -0.38406131933021       -0.28846614466952
C            1.03602025236991       -0.89504760207896        1.00581415398583
C            0.98501691783261        0.03312831642139        2.04885071351801
N            0.94309262704757        0.79882767378404        2.92235470978810
C            0.97948849820089       -2.21057113797760        1.31293215836281
C            1.01716007287316       -3.35196352314322        0.41503379093301
C            1.13346711755938       -3.22148914094052       -0.99459431117828
C            1.16792467146895       -4.30150355209541       -1.82793995876926
C            1.08464966310117       -5.58506825580366       -1.27055202179545
C            0.96822706000062       -5.74217803369416        0.13127186128528
C            0.93626267240022       -4.62381640244056        0.96360166215114
N            0.90275936849477       -7.09950950583752        0.41638379691892
C            0.97662672443971       -7.79260589866604       -0.79240273196596
C            0.94832003164725       -9.18157638191932       -1.21416415238786
C            0.83885856925787      -10.32289829704111       -0.41632044994829
C            0.82982909780723      -11.55857938632016       -1.01535991564082
C            0.92700241121730      -11.67750846211989       -2.39914202462108
C            1.03436370453142      -10.56019472384613       -3.19452986507506
C            1.04561833658204       -9.30612256880238       -2.60442605243214
S            1.17146083396900       -7.73077247145391       -3.38480577397095
C            1.08595237069092       -6.88937392897571       -1.83667348107770
H            0.89375948175763       -2.44851891814311        2.36002996141054
H            1.19704211331056       -2.24014987084321       -1.42474045984866
H            1.25575279655636       -4.18785505466772       -2.89400755797698
H            0.84777739866425       -4.75744553950641        2.02554713254242
H            0.80614909663893       -7.51614117861013        1.34036348335137
H            0.76484326463538      -10.22136789824522        0.65196673830869
H            0.74586984923336      -12.44547866708665       -0.40900159168422
H            0.91753438105047      -12.65557310403891       -2.85143405480069
H            1.10981027140161      -10.64308712428535       -4.26499786994711
