50
 energy: -8.117298954144 gnorm: 0.048795139800 xtb: 6.5.0 (97a52f5)
N            0.96047457775145        1.38452521260852        0.85776775146474
C            0.32953251527640        0.67986428800998        0.18417949664475
C           -0.44701022349829       -0.13833568139965       -0.64166007453624
C           -1.65037234947987        0.38258837621525       -1.12416187079429
N           -2.64357412774005        0.82242070129618       -1.53933678915959
C           -0.10272129498428       -1.36085680969081       -1.00140325215267
C            1.03338104747952       -2.14302970813718       -0.67552111402907
C            1.98763073369460       -1.72948373553621        0.22994277066687
C            3.03655317115737       -2.45912972904251        0.51336884226818
C            3.22765571131794       -3.64088115061041       -0.06800445931297
C            2.31428277404050       -4.11184183439324       -0.97530066748245
C            1.22287998616762       -3.35169886234653       -1.26708816622072
C            2.62643768903643       -5.36831364087427       -1.52859297568757
C            1.89142654926689       -6.07352814007110       -2.37086088573625
C            2.16835759380138       -7.23456498949013       -2.93044947350114
C            3.25605717073721       -8.06818107330478       -2.82658736211560
C            4.15009688697950       -8.19241228319895       -1.90989945412354
C            4.39001106437077       -7.60730106816637       -0.70920806739523
N            4.59794650263464       -7.10834564326469        0.31780594388247
C            6.23504520273277       -0.02803934090423        2.04643507798436
C            6.01673004538310       -0.46390982808307        3.09398268060675
C            7.10383577342457       -4.01835123024201        3.39264842626323
C            7.70286552740507       -2.83951131425126        3.49283237328859
C            9.04357141733981       -2.70347658015330        3.66314485643357
C            9.96413940476300       -3.64429965095122        3.53306559051264
C            9.98272216140997       -4.55223054354163        2.55353443767988
C            9.48396218167657       -4.35833853829063        1.36013574809022
C            9.41389346430637       -5.22208648181104        0.34551318528564
C            9.81628881818751       -6.46361924428673        0.31184409430096
C            9.72939575360789       -7.34170925235241       -0.70039078932414
C            9.17349202183951       -7.28098222719198       -1.92477208642713
C            8.45300216222372       -6.37712659666889       -2.53610855073573
C            7.99486298330129       -5.24302068457630       -2.10830685082894
H           -2.56091535062620       -3.92234399960723        0.34410974469802
H            3.18672827011478       -0.32749413644842        5.17444815017793
H            4.79116026954672       -0.37245503837265        4.05675888955153
H           -0.53088451498026       -4.16632437895784       -2.89583728506155
H           -1.12878513766293       -6.08567371556184       -6.01067761806514
H            1.44483201770483       -8.29101777756027       -5.08554919682451
H            5.77012492572760      -12.20523784553260       -3.54117703733306
H            7.88715792149187       -9.52272073200146        0.87519692513955
H            6.06793741922696       -4.14736009021123        3.26469118807818
H            7.10820643480673       -1.93584586221674        3.42140417532210
H            9.53376678568542        0.51191743924446        6.02199938040270
H           10.08097337064173       -4.38943809678219        5.07201590168292
H           11.45026124776032       -2.77327226309448        3.44586299853692
H           11.48944781298517       -6.99285039578748        3.34817563372275
H           12.13677932870384      -10.80819389935713        1.40244537660643
H            9.65844565202295      -10.87726399893191       -5.09336464905016
H            5.39133062378557       -5.09468791394993       -0.72119095569853
