54
 energy: -12.352565590352 gnorm: 0.000813327911 xtb: 6.5.0 (97a52f5)
N            2.17972504879389        0.83166603247453        1.82751941436009
C            1.25218208528634        0.27454765440077        1.40286538582951
C            0.14668983367156       -0.40422766839180        0.88763877459006
C           -1.10160486957294        0.20013624337382        1.05564548722214
N           -2.14375017504519        0.69746807672340        1.19018660477958
C            0.20212052106511       -1.59456390779397        0.24675154171198
C            1.36740648211909       -2.40914327013911       -0.04691494917576
C            2.68148764612115       -2.03275705889051        0.30278703448947
C            3.76221455176702       -2.81578859609786        0.00698270988940
C            3.57506439990518       -4.03488913143210       -0.66168227749006
N            4.57430324830988       -4.91801272804120       -1.02522855076212
C            4.09577535287615       -5.96100161893486       -1.63763100752706
C            4.87121202286166       -7.00920603398663       -2.11981486018135
C            5.55091171468334       -7.93487906545803       -2.54723078979380
C            6.32060341206399       -8.99985248542443       -3.04066006529291
C            6.97627277980222       -8.89975520440184       -4.26556264181482
C            7.72634016481384       -9.94412567414854       -4.74974856621212
C            7.84996171730167      -11.12953173673903       -4.02774258936374
N            8.62893808610088      -12.21890705195221       -4.53216619710409
C            9.79235530711697      -11.96981727968747       -5.33537232421120
C           10.65230604753734      -10.91518638806635       -5.04018171255086
C           11.77072025456862      -10.68549684126951       -5.80874570542763
C           12.05197325253006      -11.50414294845101       -6.88468333079720
C           11.20985916531719      -12.55516296764226       -7.18936266012365
C           10.09085666929890      -12.78707009639701       -6.42257258256469
C            8.25010303063054      -13.57343952839070       -4.24364561603136
C            6.91171248369879      -13.95750128479202       -4.25299575901162
C            6.55353343464436      -15.25879089678820       -3.98343843291874
C            7.52376464613970      -16.19989840972356       -3.70067804475278
C            8.85536214650377      -15.83495157349142       -3.68881265895917
C            9.21638703696560      -14.53454740906332       -3.95836513216287
C            7.19336864031908      -11.22916225498752       -2.80271936164697
C            6.44315036391526      -10.18483907838698       -2.31888833709444
S            2.34049072538676       -5.95336099611520       -1.81996155667274
C            2.27386537365102       -4.41924222965952       -1.01095409766785
C            1.18662936233018       -3.61971609389277       -0.70930392826557
H           -0.73866965510589       -1.99449811431176       -0.09155731211223
H            2.84175993519245       -1.10410104489117        0.81604152602203
H            4.75912313637298       -2.51515105734827        0.27597505795253
H            6.88418190175479       -7.98895502596692       -4.83215055836362
H            8.21713592475252       -9.86334778463138       -5.70363935093055
H           10.43511556798495      -10.28903639530587       -4.19262725888915
H           12.42940601085573       -9.86698057391205       -5.56897179957550
H           12.92849436108427      -11.32369464123390       -7.48505703770515
H           11.42845359804028      -13.19419918111622       -8.02917613495104
H            9.42538502514663      -13.59835516694102       -6.66027638887958
H            6.16158100830725      -13.22238914244616       -4.48685085111621
H            5.51432134866587      -15.54410723868048       -3.99501478138450
H            7.24198735732996      -17.21859236088851       -3.49021488215370
H            9.61275057889235      -16.56886278071750       -3.46700258805651
H           10.25133369255160      -14.24119872185807       -3.94203289414036
H            7.29179896641752      -12.13632828758893       -2.23299264397608
H            5.93817268021542      -10.27193194228526       -1.37214041418889
H            0.20088659813085       -3.94216103815634       -0.99201490487003
