73
 energy: -14.886516645861 gnorm: 0.000343303100 xtb: 6.5.0 (97a52f5)
C            2.61174547466582        0.20839668707739       -1.33085293505672
C            3.94455608794129       -0.00949592054893       -0.58984774766234
C            4.04310780325023       -1.49608581503255       -0.19675654404181
C            5.11904635190613        0.32815678694656       -1.52605579171079
C            3.99489909177299        0.90886791027099        0.64034634047692
C            4.19725003813238        0.44139655372449        1.91551237045701
C            4.22798441233725        1.30129049809092        3.02584613431785
C            4.58294065508036        0.77068330151110        4.29944760741028
C            4.68713883820274        1.57040572039911        5.37533461908065
C            4.35304087896952        2.95473238370627        5.29870186627427
C            4.41168924407212        3.72499310471998        6.47102023099898
C            3.97171860643034        5.02553734082511        6.50825498946166
C            4.00488385713412        5.87986936535374        7.78460851069746
C            4.66394017016369        7.23886978731765        7.47923142529582
C            2.56456912102654        6.10285942990734        8.27857416291249
C            4.81187879970013        5.19666712524905        8.90590081716573
C            3.40727267203201        5.53761150154339        5.34625372033085
C            3.34425711490012        4.83594897244655        4.15254003617269
C            3.90552945053712        3.52026171518746        4.07612962427575
C            3.97286426485879        2.68856963286084        2.87628266309844
C            3.87654373341806        3.16714033326022        1.53939911822938
C            3.87326894802024        2.28593726798417        0.47873705814382
C            3.88404468275101        4.60174419111477        1.18075947227500
O            4.71318039798246        5.05645496766646        0.41770407100488
N            2.83352002367820        5.39977523423935        1.73085552300556
C            2.56516957113885        5.48267208783224        3.09801294284325
N            1.55696212863264        6.31113159630686        3.33985047003801
C            1.13309548778111        6.75901832753000        2.13439737043700
C            0.02031245859719        7.62748023350372        1.83921870684092
C           -0.76535865668746        8.15742673525592        2.86492243820366
C           -1.83075001564616        8.96868378458563        2.57919716272816
C           -2.13559952613956        9.26832946775388        1.25934308015299
C           -1.37598173260507        8.75744467405620        0.23664302975197
C           -0.27790633625855        7.92334475466330        0.48969481873287
C            0.54813094623767        7.36190150775717       -0.58501340345008
C            0.29135564205448        7.62399973574548       -1.93808201898489
C            1.07867563956622        7.09745183023896       -2.93092721872740
C            2.16123302960191        6.29088463900699       -2.61339600563667
C            2.44088718991485        6.01380633919110       -1.30332545946498
C            1.64821552099340        6.52727385687885       -0.27334328961155
C            1.91742351527407        6.22758761326192        1.10803646260919
H            2.53518101613996       -0.44812020235324       -2.19689457628675
H            2.51653429258297        1.23458465132326       -1.68259212197725
H            1.76809224725594        0.00038766544551       -0.67356467900894
H            3.98042105705306       -2.13334907696206       -1.07826252182351
H            3.23179881238282       -1.77820354804458        0.47341581038258
H            4.99064890326836       -1.71049986056401        0.29609870896581
H            5.11599906317690       -0.31749082034027       -2.40363393371745
H            6.07071334851931        0.19602946580432       -1.01247570094870
H            5.06563737072108        1.35958816646104       -1.87127031819598
H            4.35541464119403       -0.60764829924179        2.08435838950608
H            4.80789206356734       -0.27910854408741        4.37940038084000
H            4.98504935969679        1.16229089123739        6.32601059122498
H            4.79319763571917        3.26173186873123        7.36202381063863
H            4.09593113061355        7.80082542524553        6.73965440744415
H            5.67271269136390        7.09880123477614        7.09240048062623
H            4.72950188438733        7.85022420529198        8.37865338468456
H            1.96803932065400        6.62185871978252        7.52955034333535
H            2.55259010185316        6.70018702990795        9.18961691042109
H            2.07891568163212        5.15119744036183        8.49175597313199
H            5.83021352061697        4.98588387613207        8.58091948811302
H            4.34585091376919        4.26166284883558        9.21430304364088
H            4.87015321118181        5.83747862642152        9.78519105170639
H            2.96854168651487        6.51849835325162        5.37040028917934
H            3.79186261344496        2.69257023997159       -0.51333454683108
H           -0.51976968664716        7.91451245970942        3.88388605437142
H           -2.43273304646503        9.37257895431318        3.37673264754202
H           -2.97598483822551        9.90594149931086        1.03777881811594
H           -1.63567570342357        9.00581754726808       -0.77603676982251
H           -0.53833576766095        8.24944259298068       -2.21196797689795
H            0.85995871706809        7.31520371221778       -3.96369942275980
H            2.78361547610218        5.88956979504580       -3.39651658168938
H            3.29642670052656        5.41840782237532       -1.04516786297996
