37
 energy: -8.480666259741 gnorm: 0.000410126906 xtb: 6.5.0 (97a52f5)
N            1.87186748379309        0.57626069838608        1.88341543031109
C            1.02077835635531        0.16972373195974        1.20526204759270
C            0.02910006484916       -0.37140672696134        0.38365034449045
C           -1.17135317423396        0.33052653333980        0.25163214757799
N           -2.17401435106864        0.90569285586440        0.13518141077844
C            0.18311161058790       -1.54082386196306       -0.27306970495062
C            1.35356921983606       -2.38987791616819       -0.22283455022863
C            2.46556585283238       -2.22279902769734        0.55371729584112
N            3.25584407659936       -3.32646747632611        0.33001859330660
C            4.53489240548557       -3.57507642860933        0.94761937835338
C            5.52282358774310       -4.23313701495384        0.23328848074851
C            6.74780574705272       -4.48818141884355        0.80868330787214
C            6.99588937163529       -4.09107258093745        2.10684520533366
C            6.01582077148446       -3.44015218197818        2.82830302417366
C            4.79107982092929       -3.18295499281666        2.25312442880436
N            2.71197443645083       -4.17443560915562       -0.54192650166009
C            1.56386075265689       -3.63504104570335       -0.91419280235386
C            0.66812345109850       -4.26418971394790       -1.89408211701973
C            0.55200765006581       -5.65310522360223       -1.92904507403146
C           -0.27275824246840       -6.26679938617161       -2.84039941707396
C           -0.99352814123647       -5.51159800825634       -3.74634598035342
N           -1.87165699296724       -6.16641198821392       -4.71466025067539
O           -1.96073602690488       -7.40112109118561       -4.69514850590716
O           -2.49614372316841       -5.46331863451345       -5.51990951411841
C           -0.87283432966790       -4.13441812785179       -3.73700508823548
C           -0.05092524314929       -3.51492649534521       -2.82649882332482
H           -0.64777689013526       -1.88681539599690       -0.86129091220369
H            2.69121679742352       -1.40680440386144        1.21391656307254
H            5.31395771499699       -4.54077344396140       -0.77692738169436
H            7.51221915078616       -4.99861970013621        0.24542834509215
H            7.95428840872650       -4.29150505747647        2.55812099630760
H            6.20780402261827       -3.13516832608533        3.84440342869625
H            4.01872710236080       -2.68798873831990        2.81579780844188
H            1.11625043526582       -6.23878831770616       -1.22358178658330
H           -0.37015100930976       -7.33944975208808       -2.86441769159927
H           -1.42927242151255       -3.56061346605605       -4.45944244450457
H            0.07328225418570       -2.44637226666194       -2.85518969027598
