54
 energy: -12.349420599827 gnorm: 0.000893734450 xtb: 6.5.0 (97a52f5)
N            2.20376710228826        0.64894158042758        1.93144661152083
C            1.27029066536830        0.13926612772849        1.46078063285717
C            0.11823111548945       -0.42767982868071        0.91655066509180
C           -1.07220864733819        0.27865022856297        1.08146983103060
N           -2.07008466972825        0.86144059265952        1.21541936720782
C            0.08124843343531       -1.60700531769863        0.24610922892840
C            1.18913811315074       -2.45835141809415       -0.02145257153640
N            2.42469163159923       -2.23147730769000        0.33548984861143
C            3.27359831716718       -3.23972070911462       -0.07074018885620
C            4.65692536069309       -3.28525573693146        0.15939204180599
C            5.38526724301840       -4.34931327788226       -0.30400229545857
C            4.77852784562424       -5.40423521813327       -1.00776970976379
C            5.54783440515419       -6.48302748897609       -1.48245917633541
C            6.20808897257208       -7.41837009082310       -1.90993561437304
C            6.96003457714644       -8.49295418949360       -2.42029664731533
C            7.60565583485395       -8.38615904460267       -3.64922498609111
C            8.32903605982490       -9.43786289631831       -4.15856508416868
C            8.43406379697183      -10.63713329498881       -3.45783756564089
N            9.17657025934017      -11.73683200647113       -3.99463645718224
C           10.32669581237210      -11.50277545740798       -4.82113086690796
C           11.22484474808111      -10.48134810482024       -4.52356834276184
C           12.32834531787939      -10.26462139807800       -5.31696826208717
C           12.55551745650419      -11.06301887586059       -6.42056304790869
C           11.67537988307436      -12.08166230637337       -6.72735805505218
C           10.57178585262748      -12.30131242557447       -5.93517971222307
C            8.77109899185830      -13.08705339613630       -3.72274749444126
C            7.42447428240957      -13.44086806237470       -3.71660578142096
C            7.04221902408431      -14.73958947431361       -3.46872882962850
C            7.99551488836839      -15.70755650892235       -3.22232510831734
C            9.33507307229569      -15.37254915522535       -3.22640195162157
C            9.72030299270441      -14.07505571858134       -3.47517064245591
C            7.79255788771385      -10.74161507809451       -2.22552964388605
C            7.06956013502296       -9.68925915928588       -1.71638341505802
C            3.41195269003306       -5.36312019335503       -1.23461643449582
C            2.66769495191037       -4.29150418376542       -0.77140406726884
S            0.96766379060818       -3.97153885017434       -0.90780959114811
H           -0.87418860764600       -1.93691210296319       -0.12478271673270
H            5.12495613420291       -2.47962505246464        0.69624876396149
H            6.44741471682121       -4.38955832704357       -0.13342560264934
H            7.52709793802559       -7.46487422205110       -4.20048006716379
H            8.81072647064249       -9.35090637896437       -5.11638461874253
H           11.04948649245578       -9.87088494160433       -3.65516459590821
H           13.01697264084131       -9.47168493929101       -5.07562202480937
H           13.41953065386971      -10.89170413488417       -7.04137967017246
H           11.85235176592679      -12.70519253778116       -7.58831988748581
H            9.87883118347175      -13.08949161776696       -6.17180798487443
H            6.68726417541754      -12.68531281750228       -3.92395180439390
H            5.99698860348503      -15.00184616265498       -3.46930079475059
H            7.69505033623895      -16.72416906555445       -3.02880882647000
H           10.07957934925315      -16.12772840611028       -3.03484386860847
H           10.76211776495986      -13.80631939513435       -3.47552981941039
H            7.88095399433320      -11.65797106634666       -1.66911830214984
H            6.57852255550043       -9.77961145012678       -0.76254549380798
H            2.92804563809694       -6.15891973692614       -1.77161936942890
