33
 energy: -7.216419434079 gnorm: 0.000912792939 xtb: 6.5.0 (97a52f5)
N            0.94261936707098        1.01331283804877       -0.81378465839413
C            2.07875548441395        0.75586438502507       -0.78623991492441
C            3.42177855584564        0.45811438674323       -0.75229840111215
C            3.99161674134446       -0.71924925945931       -1.20516989401399
N            3.35233454116323       -1.78749119450200       -1.76724654720761
N            5.38107364327302       -0.67615889593993       -1.02934966318275
C            6.35505129239177       -1.57987515237191       -1.43547809674837
O            6.06047200369740       -2.65156019764572       -1.94116966656461
C            7.74663002419520       -1.16144455002704       -1.24570252714043
C            8.77869402412247       -2.02422482427456       -1.59172812441919
C           10.09177207758389       -1.64306852120981       -1.45289725398144
C           10.39980046003852       -0.38382918541112       -0.96787165487935
C            9.39268316916494        0.48537164282652       -0.62188709030005
C            8.05991278274719        0.11710084894327       -0.74907812250704
C            7.00428182452165        1.06071835048891       -0.36356307934905
O            7.25237542498890        2.21542318872485       -0.04266326438384
N            5.71108337862055        0.56850671819569       -0.37287603542878
C            4.50144821639855        1.37118550166878       -0.17506194555455
C            4.29099413911198        1.71567793611898        1.26067974145924
C            4.17785572377595        0.82277096542767        2.26884117039618
C            3.98697555057023        1.42328839043345        3.54851559725073
C            3.95705669361345        2.77010636390167        3.50802962789026
S            4.16012844353581        3.33162996447577        1.88786880451461
H            2.40137165037980       -1.75842971594599       -2.08769133264253
H            3.90396226416874       -2.53475542332810       -2.15765704080130
H            8.52621636000411       -2.99808410960126       -1.97674911207585
H           10.88260333565535       -2.32313802143483       -1.72460134998882
H           11.43002760269018       -0.08513878842175       -0.86230218614640
H            9.61925084888697        1.46877567462545       -0.24514323913290
H            4.58831337754411        2.28759536875378       -0.77418701666986
H            4.23127497385107       -0.24431751206965        2.11300442944182
H            3.87934276947852        0.85026545389833        4.45883712218315
H            3.82618325514745        3.41830737334126        4.35432072441357
