49
 energy: -10.639588851243 gnorm: 0.000653072638 xtb: 6.5.0 (97a52f5)
N            2.60174654875388        0.14084795632590        1.56305580254956
C            3.45314133233438        0.51893322065519        0.84881658845593
C            4.46276126471274        0.93745863009864        0.02929150296149
C            4.87517169484962        2.20802544315794       -0.18209713015850
C            5.91445597792857        2.61618521842828       -1.07025144206751
C            6.29798420204708        3.98646263743839       -1.16295043272469
C            5.80666412396254        5.00920970166180       -0.41721544397356
C            6.21689157045526        6.38968039417307       -0.51414781038316
C            5.64083151310717        7.33918214890844        0.33907854961481
C            6.00980506459707        8.66318787442906        0.27864718789925
C            6.96161011365547        9.07741700768307       -0.63237601540264
C            7.54363155665291        8.15940074953866       -1.48486917517499
C            7.17936194695225        6.83320845505867       -1.42992361780799
C            6.59555538869193        1.69451092229062       -1.92047288192302
C            6.42034874125678        0.35401968357307       -1.94972815076971
C            7.04201258734455       -0.54814713785568       -2.76543790789004
N            7.58262554945577       -1.33624484406231       -3.44702432135350
P            5.28644892169885       -0.40993015251704       -0.80262165346793
C            4.08000345567398       -1.40290361995776       -1.70413404962702
C            3.89808296512033       -2.72991942210687       -1.39040850801845
C            2.96953265132928       -3.47897044209464       -2.08888897132258
C            2.23011222683034       -2.89167979922711       -3.09667642031818
C            2.41609559504764       -1.55884059690730       -3.40639633337661
C            3.34565629506876       -0.81185304691047       -2.70574747520689
C            6.18160804553482       -1.44152576861095        0.38838263467728
C            7.35060804340907       -2.06573286935128        0.01813686493803
C            8.02028938699975       -2.87034392479555        0.91982825014717
C            7.50953716973473       -3.05364538259244        2.18900092764900
C            6.33030907875528       -2.43645263017390        2.55485253134021
C            5.66595478226066       -1.63100710631940        1.64985187064108
H            4.34971276645310        2.97273343239874        0.36396222476569
H            7.05934124687197        4.21325106588698       -1.88628171866484
H            5.06093557101268        4.79447205169409        0.32467496009464
H            4.89901893934633        7.02035349383321        1.05103516708028
H            5.55561937146253        9.37904748812945        0.94403117200529
H            7.24970432946590       10.11485643047213       -0.67824681014337
H            8.28651119510000        8.48369795140047       -2.19510160793591
H            7.64241333991596        6.13315050813485       -2.10143392316862
H            7.31716819808879        2.10494950230907       -2.60941667079932
H            4.48201968513339       -3.17347020953607       -0.60056434470956
H            2.82440165547179       -4.51900320371723       -1.84724074899931
H            1.50668848671396       -3.47482453118230       -3.64269612839013
H            1.83924504980428       -1.10112849372923       -4.19324547209335
H            3.50408532306433        0.23005687788044       -2.93511338832651
H            7.73265486573802       -1.93085966476343       -0.97936558923486
H            8.93824828720802       -3.35550780829009        0.63138279013378
H            8.02969216135004       -3.68238637139548        2.89301449225546
H            5.92686123375594       -2.58381062283486        3.54312427274345
H            4.74037049984205       -1.15315119665174        1.92275635345680
