35
 energy: -7.623982383082 gnorm: 0.000844947222 xtb: 6.5.0 (97a52f5)
N            1.21103453834675        1.04042474236815        0.83076310543284
C            2.33402078639710        0.91718138682817        0.49640999252902
C            3.62940045636814        0.74925107015494        0.13671583260580
C            4.48654950795401        1.68998085578302       -0.36464743646837
C            5.80343556504358        1.44312877146618       -0.74964790846681
Br           6.79199850888128        2.91042931617405       -1.40546868287724
C            6.45602149381638        0.21197393008314       -0.70400645193267
C            5.89670884186213       -0.95374441893420       -0.25723990713415
C            6.47415038641707       -2.17851621097706       -0.21135941113516
N            6.96488990735971       -3.24732429122173       -0.14396760383732
P            4.20839517202676       -0.93330345356599        0.34132739033238
C            4.11714191746656       -1.44508974653613        2.07928600563258
C            5.04276320591842       -2.32701550886962        2.58846139598288
C            4.95060283454003       -2.74509664634741        3.90174739586744
C            3.92335498506459       -2.28399195608769        4.69936029624361
C            2.98758192235221       -1.41040394831654        4.18436191276189
C            3.08547080346875       -0.99456768690880        2.87084815025109
C            3.20281449485995       -2.03721130490047       -0.67131413490656
C            2.73615362111288       -3.22224590818044       -0.15233092401374
C            1.97186687798923       -4.06240731535802       -0.94011147189477
C            1.68213136924915       -3.70773990450943       -2.24254108590177
C            2.15555338577869       -2.51817109825071       -2.75910019729399
C            2.92125786122447       -1.68037091807465       -1.96919363720238
H            4.11604102430530        2.69785128064680       -0.48031354413731
H            7.47688648030737        0.17939366969176       -1.05505929824337
H            5.82836265585234       -2.70258823928271        1.95526794041742
H            5.67695120572594       -3.43423741534794        4.30017176684909
H            3.84865814726933       -2.61032660327856        5.72376336272163
H            2.18043001328635       -1.05560013422020        4.80399636521449
H            2.35008240245754       -0.32536338725835        2.45817830311373
H            2.97228805283449       -3.48684458957244        0.86534710475210
H            1.60384129702553       -4.99173176407580       -0.53763737432187
H            1.08482574677111       -4.36104870918100       -2.85734692628878
H            1.92843755464201       -2.24130672812807       -3.77542048988240
H            3.29860697602936       -0.74749713581099       -2.35700983475967
