37
 energy: -8.128009928062 gnorm: 0.000881039018 xtb: 6.5.0 (97a52f5)
N            1.13726237312700        0.97552127346686        0.35876948878062
C            2.30114733748786        0.88437844357573        0.22087174968485
C            3.64975784067864        0.75511125323276        0.09569036295961
C            4.56051094684952        1.74429394546747       -0.07909410999186
C            5.95435788451000        1.56991150027151       -0.22433023529128
C            6.75322185178497        2.75959123877169       -0.38952852822032
O            6.32785327742026        3.88888732484224       -0.41558039047725
C            6.59323495956651        0.30674230308929       -0.23374452248036
C            5.97219249999341       -0.88913407545877       -0.08105744943189
C            6.53930189560804       -2.12627966969303       -0.09997402036711
N            7.01277325323720       -3.20240796899435       -0.08237844920771
P            4.20550562174453       -0.94133947014030        0.18883323800986
C            3.81014101430752       -1.66234227348213        1.80640745107916
C            4.63130015146661       -2.62224368397466        2.35233280611840
C            4.31605652000493       -3.19192134933230        3.57034540966367
C            3.17166359384651       -2.80254564319423        4.23535851841336
C            2.34167009836517       -1.84991075895194        3.68133336530644
C            2.66171503540294       -1.28350561797937        2.46307010997625
C            3.42842385990553       -1.91039689898491       -1.12034110706683
C            2.93205525541740       -3.16442220108949       -0.85075708619614
C            2.34949596186146       -3.90449340561794       -1.86228204343649
C            2.26941695056269       -3.38186094333407       -3.13736874081001
C            2.77120656027531       -2.12367240076096       -3.40338319265308
C            3.35531807118388       -1.38666706180140       -2.38975545109164
H            4.19690534379572        2.75962780024145       -0.11552767115760
H            7.82393180450136        2.64845146575766       -0.49909242962706
H            7.66195551882669        0.29202821096889       -0.37925386378523
H            5.51343746255267       -2.93657715444547        1.82074683648276
H            4.96152156917681       -3.94142791167108        3.99795935181127
H            2.92373543722092       -3.24568565228937        5.18611984413916
H            1.44393695340034       -1.54932596486449        4.19621534391719
H            2.00877627726370       -0.55161841850375        2.01876571552205
H            3.00460496898433       -3.56114309304543        0.14874123557169
H            1.96053978932121       -4.88790869086223       -1.65517487573536
H            1.81522002774681       -3.95787624794442       -3.92711893175031
H            2.70869213639601       -1.71601286339831       -4.39893631957720
H            3.75468989622308       -0.40350533986763       -2.58231140908751
