45
 energy: -9.857172049898 gnorm: 0.000718072224 xtb: 6.5.0 (97a52f5)
N            1.63744241150575        1.43839800198777       -1.84547127154681
C            2.69077977931074        1.22720386554620       -1.36829208740699
C            3.91223475641839        0.98805707139305       -0.81306266028051
C            4.69495366124689        1.86177610731867       -0.13288590779612
C            5.96276604638194        1.58388813976285        0.44706777440287
C            6.67517022539489        2.65951573094633        1.14334092198703
C            8.07501363421423        2.66776370984990        1.22960771649570
C            8.74242861481880        3.67943008607050        1.88009124913299
C            8.03781062317350        4.71141140476121        2.46750609110869
C            6.65876631418303        4.72706825015329        2.39957482411895
C            5.98508372305515        3.72006620675468        1.74829195395963
C            6.55772459859214        0.29403419442606        0.39015275964450
C            6.04215601323431       -0.80328351890364       -0.21684443396431
C            6.57613158189640       -2.05650601561383       -0.25437062182242
N            7.03266019605106       -3.13933937892861       -0.28200903337174
P            4.47928697951963       -0.68334795111522       -1.06508422101802
C            3.28280722847589       -1.82972875817509       -0.34828679422520
C            3.31537444780475       -2.07453397245082        1.00486350934176
C            2.39199693242792       -2.93543417527528        1.56930562866699
C            1.43878852043210       -3.53900569240385        0.77331415330160
C            1.40563998138101       -3.28340331394482       -0.58316277336717
C            2.33115920364757       -2.42329397562136       -1.14458210669889
C            4.73238083010786       -1.03077742620703       -2.82105042144326
C            5.01033444401762       -2.32037654635118       -3.21033591378642
C            5.21708186864204       -2.60636702031019       -4.54734414361819
C            5.14940031748017       -1.59550800545860       -5.48503897699318
C            4.87796045726812       -0.30110704046836       -5.08905492997016
C            4.67077896617137       -0.01948612548404       -3.75148590360135
H            4.32228818901448        2.86934939253765       -0.04877516778558
H            8.63919211108942        1.88952922821349        0.74692836834069
H            9.81911250247467        3.66971189874578        1.92789535062214
H            8.56328805936188        5.50224352970620        2.97727604979110
H            6.10792431577875        5.52911291897383        2.86309658290894
H            4.90965390961567        3.72820680850004        1.73492132742451
H            7.49279852034523        0.15789982904056        0.90832338985656
H            4.06323714538780       -1.59180045956337        1.61355436570880
H            2.41695880438685       -3.13319184987988        2.62824794052625
H            0.71814325941140       -4.20951520620892        1.21215711823108
H            0.65928870104774       -3.75107687417625       -1.20394330643116
H            2.31387985222545       -2.20928081254938       -2.20088862892194
H            5.07434415384508       -3.09632380328970       -2.46460581385805
H            5.43485564981791       -3.61591396330253       -4.85455905515887
H            5.31187615502867       -1.81636236029316       -6.52729132317492
H            4.82799428044294        0.48890950797185       -5.82010750702638
H            4.46172203388551        0.98713836332388       -3.42902407231077
