56
 energy: -9.461243290450 gnorm: 0.000314986260 xtb: 6.5.0 (97a52f5)
N            1.38168495870863        0.04872997880721       -0.40825238545983
C            2.54201369172024       -0.05478197767586       -0.30033651198321
C            3.90337019271727       -0.17498928909457       -0.17485454757072
C            4.72719662560391        0.97851607147778       -0.10320867077351
C            4.19335980868206        2.27186604008961       -0.16617032118999
C            4.98583607869760        3.39284754570254       -0.10039512713117
C            6.38350682773130        3.24897078927853        0.04658520886771
C            6.94228005913382        1.96213734569727        0.11199579143988
C            6.13004291520118        0.82633944173313        0.03255709023900
O            6.72912718010937       -0.42404599044202        0.08729291179885
C            5.92312985597873       -1.55054544087067        0.00450334784859
C            4.51416680732747       -1.45500021466142       -0.12045633091988
C            3.76281293164209       -2.63508512958399       -0.19223905058992
C            4.34956664294675       -3.87733111019519       -0.15303071188644
C            5.75368665041605       -3.97977756366600       -0.04046608830792
C            6.52744791823105       -2.81108741121249        0.04366560304195
C            8.01541915366802       -2.88581439006416        0.17166468884495
C            8.59303009213538       -4.17627757397675       -0.42476853046664
C            7.83713636997346       -5.39850894218234        0.09292188386821
N            6.37220591411582       -5.23974048931359       -0.02082374441691
C            5.60011239036391       -6.49239168001594       -0.14564947829056
C            4.17326721890766       -6.34127576706047        0.37730864414929
C            3.49395633294151       -5.10756443374468       -0.23400248601729
C            8.41743207726236        1.77216857309293        0.26953584088624
C            9.22732786358833        2.96632989086723       -0.25244213181183
C            8.67215157728728        4.27926021803398        0.29593771577011
N            7.20881431477620        4.38274289466999        0.11561435806061
C            6.64920602860273        5.74983899508810        0.12584690924447
C            5.33992209516412        5.83303347493635       -0.65546762993891
C            4.35560620059963        4.75253893020122       -0.18624861703881
H            3.13052839091991        2.38616828209788       -0.27150567258367
H            2.69522731519699       -2.56152873806327       -0.28609872711655
H            8.28073192294946       -2.81049081031880        1.23230031842442
H            8.45620300882892       -2.00382985691750       -0.30948515557083
H            8.51597760505608       -4.13811424752144       -1.51780890070111
H            9.66521015487127       -4.26099951419366       -0.20181373172203
H            8.07141990485989       -5.57594877076796        1.14669407965072
H            8.13181397721486       -6.30135932351195       -0.45215253129990
H            5.59265650924183       -6.77418980381170       -1.20279034382545
H            6.13319176412904       -7.28579699854377        0.38881558099216
H            4.19709254981844       -6.24038222538664        1.46883200820277
H            3.58850274943159       -7.24825327448582        0.17231666693557
H            2.53504035463259       -4.91437499340872        0.26244913376864
H            3.25310906758214       -5.29885603593591       -1.28590353681002
H            8.63757660349300        1.60439857125428        1.32999231745410
H            8.71085852208400        0.84885461348614       -0.24535423307897
H            9.18465271460254        2.98424971142883       -1.34789148752827
H           10.28951250057505        2.85758387103143        0.00543518621364
H            9.14909467061378        5.13743918194096       -0.18836300522467
H            8.88158115365802        4.36680164382093        1.36615485046910
H            7.39345542477045        6.44266078490468       -0.27994463647958
H            6.49100438071662        6.03571533317840        1.16998652744627
H            5.54779760078845        5.69685726269488       -1.72342855209393
H            4.89498873876570        6.83288077093343       -0.56099514311775
H            3.48991148081264        4.70724421071886       -0.85843851168331
H            3.95551416015010        5.01688756946100        0.79914986901176
