69
 energy: -15.327629015335 gnorm: 0.000764142577 xtb: 6.5.0 (97a52f5)
N            0.90836772569166       -0.81811692921313        0.09922626547644
C            2.01607364436535       -0.55561441906287       -0.15722929467830
C            3.31665855535807       -0.25067829024678       -0.46116052500840
C            4.03136099199562        0.83071272830372       -0.02548155058117
C            3.45664947600669        1.80872516379253        0.91849197946307
C            3.74532202207713        3.17217275858852        0.78825759732792
C            3.25091715629114        4.09049327476420        1.67738690523622
C            2.44054269845877        3.68933909386020        2.74176164206996
N            1.93560683263873        4.65464020018321        3.68649956773894
C            0.54357385451290        4.94381994765902        3.76269301089289
C           -0.37145617577712        4.30081305808706        2.94410441604332
C           -1.71817316651380        4.59878759479867        3.00827285004921
C           -2.16972650080614        5.55216198248676        3.89430544683730
C           -1.27511349667531        6.21040624255186        4.71258063651378
C            0.08467913603106        5.92652235899120        4.66252166580592
O            0.95096454795577        6.62879332154567        5.49865450631841
C            2.31230692009278        6.33762376648923        5.42555060603701
C            3.19230734364079        7.02012146286089        6.25720301333092
C            4.54574116348344        6.75369622380494        6.23283869182573
C            5.04282611870148        5.79672958535127        5.37563437370996
C            4.18604324173028        5.10993869745905        4.53850742257784
C            2.82423005186238        5.36799899145372        4.54034827105643
C            2.14272411069817        2.33086080509276        2.87350438045246
C            2.63971142785432        1.41393417229590        1.98359063758090
C            5.40987262988002        1.03514938618177       -0.50451245532855
C            6.36213231329064        1.65298187765515        0.31410424047023
C            7.64312369505877        1.86698086403610       -0.12336415793200
C            8.03622577400847        1.47088047493250       -1.40357166206574
N            9.37672966076318        1.72102818042830       -1.87177672099272
C           10.27025707440373        0.64644549941195       -2.14548427610168
C            9.87906764091825       -0.67411948214124       -1.99099195290905
C           10.75541508253193       -1.71165700349971       -2.24045636265293
C           12.04373190425890       -1.44074941959897       -2.64590915354860
C           12.45705963325757       -0.13345985841749       -2.79748639869403
C           11.59135107418098        0.92540698915912       -2.54958323252449
O           12.06156975157103        2.22868485046258       -2.69981254843269
C           11.17898800480642        3.27727896912992       -2.44642443960676
C           11.62300044595908        4.58437454934794       -2.60839717900703
C           10.78054188047663        5.65431804370854       -2.38794367455775
C            9.47622300751622        5.43450496262521       -2.00373889035932
C            9.01693103203927        4.14367536360885       -1.83276963149804
C            9.84874852279624        3.05426396411427       -2.03882883254755
C            7.09227513565919        0.84766326827528       -2.22356788694234
C            5.81026111526613        0.63493713705567       -1.78500196203206
H            3.80684168811082       -0.95269285703701       -1.11221249300351
H            4.36211235281170        3.49669015592528       -0.03184307568645
H            3.47545156664344        5.13674229487103        1.56492617520859
H           -0.01927941629399        3.56415845423171        2.24479539709309
H           -2.41482973171725        4.08703387136367        2.36493558331574
H           -3.22023771279698        5.78670004158280        3.94529791334468
H           -1.61497070577538        6.96115838733701        5.40352604830373
H            2.79186780284413        7.75872058638523        6.92880140056557
H            5.21227590106876        7.29027135630937        6.88796069867358
H            6.09899240845618        5.58357460838281        5.35874778206120
H            4.57427150965671        4.35665706817536        3.87684966108572
H            1.52657007865377        2.01482956036491        3.69697899449992
H            2.41498665536460        0.36951269040013        2.10824810341933
H            6.07766614419775        1.95365607514163        1.30742329728370
H            8.36783938137789        2.33973611895733        0.51614795403520
H            8.87781938732077       -0.88744573169004       -1.66306429339188
H           10.43217835558521       -2.73205561766847       -2.11619527972027
H           12.72957401849006       -2.24890558013378       -2.83990753893339
H           13.46239906938116        0.09071838032042       -3.10664115079201
H           12.64096362375172        4.74350145908869       -2.91701806793144
H           11.14149484793303        6.66078122797866       -2.52268893020173
H            8.81463060912564        6.26856194357571       -1.83726354383099
H            7.99620279236135        3.97341072393721       -1.54176504558568
H            7.38514804971886        0.55583278405561       -3.21697439025328
H            5.08989826540012        0.18451158980763       -2.44490053837742
