138
 energy: -26.661846836050 gnorm: 0.000448903738 xtb: 6.5.0 (97a52f5)
C            3.78499482128858        5.55259653807354       -6.65936760232522
C            4.55328629757515        4.68340804049662       -5.64535363219533
C            3.87086432405279        3.30257465655246       -5.58000895167166
C            6.00103379264918        4.48820619487712       -6.12430264699083
C            4.56492423379825        5.38174675672080       -4.27576006725118
C            4.09225463395198        4.76270895331523       -3.12471285291824
C            4.09506753478380        5.41540438091878       -1.91283259253507
C            4.57249738880951        6.71924884945684       -1.80274815296354
C            4.50731283470748        7.42894342198911       -0.49619778244472
C            5.62511181089382        7.54740247337867        0.31385683377655
C            5.53061089814676        8.11803232840764        1.60462697113232
C            4.33736096547627        8.65682143655768        2.06061086131264
C            4.26595660177897        9.36358988551830        3.36640788736904
C            4.00058259787404       10.73034894064909        3.41067901021189
C            3.90691540025219       11.39372824572614        4.61273402705708
C            4.08783594038958       10.72952739971343        5.81896933267459
C            3.92909105166334       11.49675550310718        7.14126880246352
C            4.77319177634664       12.78641866581532        7.10103587839555
C            2.44612187011767       11.86051713373712        7.33476547872924
C            4.39105949576112       10.65350005254316        8.34544027832519
C            4.35773894929437        9.36588511833635        5.77412561990003
C            4.44424015629543        8.69335608107231        4.57447741743993
C            3.16145526891387        8.56939072937895        1.23733693147938
C            1.93154143301444        9.05949864957964        1.66878950130636
C            0.78404834459035        8.96296122274877        0.88259308376512
C           -0.47460327589046        9.46029519080479        1.31696098865499
C           -1.57340492642733        9.34966050902505        0.52594735554241
C           -1.48684954942853        8.73930697856469       -0.74055794006329
C           -0.30306091996783        8.25013685907969       -1.19283034064143
C            0.87100321500287        8.34424366504275       -0.39731018623750
C            2.10097436166939        7.84887446568013       -0.82731590204004
C            3.24551534028125        7.94345265498321       -0.04060677979840
C            6.76174758578194        8.11920992104928        2.47450288696299
C            8.03481078569286        8.35987534584859        1.71100650401567
C            8.11407661941680        7.91633572732739        0.37097460169057
C            9.22764510402418        8.20110034721037       -0.40402717553188
C            9.29553047187903        7.80536353837398       -1.83575966317014
C            8.52636961448801        8.46032015478400       -2.79521130546427
C            8.65773126481972        8.15927349928184       -4.13294536553095
C            9.56309733318824        7.19839160554977       -4.56939366013982
C            9.79870800250612        6.90647668706115       -6.06027953691918
C            9.72908992778827        5.38806171240257       -6.31384998247735
C            8.74589512206785        7.59779432560695       -6.94945166882810
C           11.19178752430982        7.42806336799065       -6.45736232583377
C           10.32095895015301        6.53936982714773       -3.60899570573125
C           10.18956533525629        6.82931333416050       -2.26925356227899
C           10.33349057663892        8.91332832816583        0.17977564739794
C           11.46981462410612        9.22677563026544       -0.56128823908389
C           12.55603134405595        9.89379362777098        0.00387124815112
C           13.72297649538177       10.20732047790973       -0.74451739448200
C           14.76702225228710       10.85160928135671       -0.16131251412421
C           14.71289487057079       11.22269769872538        1.19639509355373
C           13.61562675116358       10.94286807678509        1.94667529256969
C           12.50130190417210       10.26930991223509        1.37685982466523
C           11.35965348799590        9.96544660344851        2.11699665236172
C           10.27561833466084        9.30164925676445        1.55021724120617
C            9.09793022761596        9.00847239899572        2.31714803093736
C            9.06312290550115        9.33375988816326        3.76980325793096
C            8.51326230287193       10.52169625500257        4.24639031886689
C            8.51975433233262       10.80969135538526        5.59446495651444
C            9.07516468286730        9.92933423031690        6.51733488921708
C            9.13558525569714       10.22774544207692        8.02433781354819
C            8.48163928137977       11.57890223124541        8.36930925716859
C            8.39672388704862        9.11700979547637        8.79490792890222
C           10.60817568469560       10.27596193026187        8.47388973392690
C            9.61284607161506        8.74190284565918        6.03767419032333
C            9.60871167397627        8.44633053820820        4.69380917938255
C            6.97589467566612        7.08349435904265       -0.16462667492975
C            5.05984745026361        7.33791115724106       -2.95148672360887
C            5.06032029055451        6.67556626013128       -4.15958327001453
H            3.73740879205294        5.06489285731200       -7.63284543990324
H            4.26445480937963        6.52068429493712       -6.79784441050461
H            2.76442099000237        5.72858938899851       -6.32015262816347
H            3.85026946749126        2.83499416916307       -6.56433223076381
H            2.84096354805132        3.39025793502783       -5.23463870512185
H            4.40590301032529        2.63038322133112       -4.90965228116586
H            6.03051947114433        3.98212667529252       -7.08907682335390
H            6.56567937585736        3.88970254392968       -5.40966224685581
H            6.50483769515149        5.44639995219172       -6.23375221571505
H            3.71065995244925        3.75836293882695       -3.17328857490717
H            3.71502388039168        4.92701613730272       -1.03158002647092
H            3.86204510820078       11.26253422512936        2.48487549558422
H            3.67764360776308       12.44509590437227        4.61743391881516
H            4.39913204201313       13.48615344253343        6.35512848538886
H            5.81000997378039       12.56155496738425        6.85627331198630
H            4.75543873189889       13.29447417775607        8.06508755451029
H            2.08701870437180       12.48751016497014        6.51922941053207
H            2.29585507285930       12.40371439962210        8.26754265839438
H            1.82895658081238       10.96272313637587        7.36264222231937
H            5.42130196658151       10.32574511950247        8.21755348781306
H            3.76246085931557        9.77301458909036        8.47519519803123
H            4.33800343554033       11.23176482497232        9.26777967569368
H            4.49566949046111        8.81752412453284        6.68896025842645
H            4.64232267036121        7.63520427633026        4.55774390777140
H            1.85790253724932        9.51898540724362        2.63695909982832
H           -0.54292568222278        9.92700992763007        2.28470140340139
H           -2.52234072064547        9.73083190709142        0.86684344224471
H           -2.37066976177841        8.66166947197209       -1.35279819839818
H           -0.23928762885095        7.78372303159018       -2.16102705649609
H            2.16399103849126        7.38141862603856       -1.79265619049000
H            6.83284990342085        7.16142600631817        3.00178458621973
H            6.65926982918384        8.88370325111813        3.25096440671099
H            7.84169139535287        9.22733459435720       -2.47535322281733
H            8.05650494276082        8.69281036970002       -4.84749524968587
H            8.78435902363905        4.98029519973871       -5.95876754011335
H           10.53283693185194        4.86035222510036       -5.80246131426857
H            9.81502579593306        5.16596137238707       -7.37738161265880
H            7.73681942389303        7.30177388639032       -6.66680750759237
H            8.88900247642240        7.33230611435602       -7.99679672094729
H            8.81884032884825        8.68246082751309       -6.87504686541594
H           11.97379437894107        6.94207277680220       -5.87480995504389
H           11.26521450566067        8.50157241443754       -6.28442051018973
H           11.39312808646761        7.24035531122788       -7.51185331134905
H           11.04140837588019        5.80291062617227       -3.91985053417970
H           10.79602897143092        6.31948644205865       -1.54009050439519
H           11.51778674853707        8.94408714440564       -1.59647098620092
H           13.76703804927400        9.92350330408198       -1.78207150329645
H           15.64743362802298       11.08223715727485       -0.73896293293869
H           15.55257622714679       11.73260709326790        1.64020077229402
H           13.57648187413733       11.22699623852753        2.98433878986334
H           11.31609368273094       10.25402007277025        3.15110714083197
H            8.08680173721516       11.21613678288786        3.54279815208556
H            8.09065378814969       11.73650513345553        5.93114330985332
H            7.43056329396846       11.58571892360813        8.08790441774665
H            8.98308338586357       12.40115270462168        7.85942473261360
H            8.53665048320266       11.77308143266620        9.44040103804382
H            7.36524970336533        9.03259568268199        8.45537094044256
H            8.38473571580156        9.32547116921215        9.86454720138033
H            8.87446750218956        8.14879803767004        8.65108740248260
H           11.15120440407487       11.04915568888557        7.93084795289815
H           11.10895333223789        9.32554706438972        8.29370794504155
H           10.68367844670555       10.49539982795464        9.53873310793141
H           10.04766202301633        8.04178518198999        6.72988415200939
H           10.03564577172123        7.52412328548484        4.33788471311427
H            7.12380149675265        6.04026351486661        0.13582033316068
H            7.00017739755693        7.08243758270600       -1.25795388374370
H            5.42630837441797        8.34782474605250       -2.88385221151394
H            5.44864387398416        7.17148001830873       -5.03218784054549
