65
 energy: -13.413400534706 gnorm: 0.000994043042 xtb: 6.5.0 (97a52f5)
N            1.48541177346710       -0.45690856900904        0.05896261352793
C            2.56575416243041       -0.46433475311179       -0.35421120357260
S            4.17604829048916       -0.51845195710421       -0.92360431442312
C            4.90888163700973       -1.47601843990596        0.37036925570479
C            5.93248750812820       -1.06668700475455        1.18337166687338
C            6.22963091928818       -2.11460980101999        2.09381406259663
C            7.25772107742813       -2.16731454066811        3.06859000394373
C            8.15043903854694       -1.03488611049792        3.33126444135199
C            7.64349995162216        0.25914841862608        3.58947072859791
Cl           5.95071419143991        0.50648409179593        3.73150879861759
C            8.49732642699679        1.32086761052332        3.83511430397709
C            9.86413200204971        1.13193199797688        3.85291373405302
C           10.38898033286989       -0.12138105423354        3.61268474725103
C            9.55495612242864       -1.19313921624252        3.34421173775950
Cl          10.25458591242251       -2.69302074879424        2.89031427629004
C            7.37928727532048       -3.39341868902026        3.76008995683545
C            8.25653695919441       -3.79502488299329        4.80464771219622
C            7.95087948910527       -5.08666812287072        5.16117915687733
S            8.76673924334584       -6.03995762365884        6.40613615998930
C            9.84199270600540       -4.86678188966815        7.02963378215278
N           10.55784112699246       -4.04942742387672        7.42584149802362
C            6.85747760373959       -5.51413979983677        4.34188489216251
N            6.20472203404435       -6.72188800512584        4.31812924322177
C            6.58273411505524       -7.91348554563005        5.06025929887018
C            5.75089587654049       -9.09649730838962        4.68827226415914
C            4.53644239356921       -9.32687925354644        5.31352491021744
C            3.74181735094047      -10.38859515565051        4.93441595287375
C            4.14934563927345      -11.22742680555632        3.91897305153232
C            5.34993183950953      -10.99998296175966        3.28052887860641
C            6.14369396929531       -9.93787852005741        3.66013466607652
N            6.56289787986501       -4.46828604005253        3.53476238488638
B            5.42845408842840       -4.49508914586355        2.51005039329371
F            4.24529605773926       -4.72593327946059        3.19059233953613
F            5.69077571521243       -5.50131269916045        1.59541292168892
N            5.36144350099288       -3.14016844202210        1.78446963485961
C            4.53846960721677       -2.80338808229435        0.75287152237206
N            3.55763814576892       -3.54438937173534        0.12880120602913
C            2.93923451448104       -4.74599166901000        0.67354270635002
C            1.81153939333242       -4.47408851860652        1.62160809686640
C            1.19850373227566       -3.23518601951747        1.68332430841789
C            0.15591655126984       -3.00483541578041        2.55598210473646
C           -0.28882027450830       -4.01485216665810        3.38140569445165
C            0.31088534859346       -5.25476261692115        3.32992394275507
C            1.35159304736369       -5.48263241227254        2.45414376738418
H            6.42356767029113       -0.11018151817313        1.13846490938393
H            8.07478603758064        2.29211493617853        4.03074042207388
H           10.52107046469723        1.96222962076194        4.05366528932393
H           11.45431040847169       -0.28038481136968        3.61310071361669
H            9.04483527342247       -3.19899536786623        5.22963375869211
H            5.50867882458030       -6.88767700053960        3.59679836176420
H            6.48609778529455       -7.70247992234084        6.12983091331199
H            7.64155045293500       -8.12014550836437        4.87526829006125
H            4.21439314433581       -8.66282761031864        6.09729624719350
H            2.80071944322974      -10.56089453299907        5.43072728042115
H            3.52853156147100      -12.05693579146173        3.62210252601494
H            5.66734011186309      -11.65045674679205        2.48190529613306
H            7.07493878749402       -9.75066785321981        3.15345165180670
H            2.99882473420527       -3.10594498793914       -0.59957914252079
H            3.71838825476325       -5.31384025250169        1.18775819936162
H            2.58995230545174       -5.38056908582975       -0.14815785795377
H            1.54588450149214       -2.44292823406358        1.04511738813626
H           -0.31137236496435       -2.03452066799956        2.59311029432691
H           -1.10261081870502       -3.83584166109430        4.06502188896474
H           -0.03263140137559       -6.04698640043892        3.97503930298290
H            1.82224054686389       -6.45013866024705        2.41593696693436
