61
 energy: -11.720969276800 gnorm: 0.000627234075 xtb: 6.5.0 (97a52f5)
N            5.68650278304018       -1.73993546867628        0.53551808289390
C            4.84943890585291       -0.96726155022114        0.33620153419424
S            3.63013004501477        0.19706252353199        0.05190482351584
C            4.58065583493080        1.68214410363372        0.18552055484234
C            5.76620298231412        1.88638987053915       -0.46586792117476
C            6.23657754379998        3.19050046690048       -0.15086322438239
C            7.45145329983792        3.80219770698117       -0.51204335998288
C            8.40454950761775        3.14862688225846       -1.42482944614964
C            9.76725019302915        3.07689733539302       -1.11780151227054
C           10.65314566845777        2.46654467791954       -1.97399280300454
C           10.20496807859579        1.90955327067157       -3.15484306696072
C            8.86347484971722        1.96411407336750       -3.47613455073053
C            7.97250895676451        2.57386019973722       -2.62447853639339
C            7.73023679504945        5.04192246810548        0.09322310625479
C            8.87177243365656        5.86956512753633       -0.06889565675670
C            8.73186293221075        6.97268135034480        0.72632576966273
S            9.91775235526153        8.28256680717833        0.79931826600586
C           11.14401979438701        7.65524645705763       -0.21309940247245
N           11.94548699621881        7.19365390000974       -0.90743395084491
C            7.47520849045515        6.86530079928414        1.42067947254535
N            6.98471487011409        7.76788260943404        2.36214988565489
C            7.85649676785685        8.60277634252886        3.20541841006362
C            7.72204616978002        8.17941173014008        4.66767328000320
O            6.36524064706598        8.19899844182181        5.09353111662855
C            5.52987372751043        7.37453373389445        4.29208105985838
C            5.59370564480648        7.78733553840852        2.82372232636933
N            6.91216559369912        5.69820148517310        0.98516932383341
B            5.50058308923009        5.14897989583327        1.27531837968716
F            4.59476614517708        5.99930837424034        0.65904107284866
F            5.31664428357530        5.07976484590464        2.64597002320936
N            5.29960258421150        3.73612573230943        0.69467473552215
C            4.27499695333266        2.86833069208740        0.93992049169941
N            3.19108214051588        3.04789610934000        1.79677199898859
C            2.54665467192350        1.94839431553683        2.53211844104270
C            1.02939633637347        2.09621043568929        2.46444392348600
O            0.62241504426722        3.36972941061101        2.94828333618805
C            1.20535276509147        4.44302584454823        2.22022007548590
C            2.73182520543439        4.37098501581697        2.22957693865686
H            6.26952028609851        1.16211752346867       -1.08222249055703
H           10.11426830056815        3.48119614487343       -0.18294409144248
H           11.69997483687602        2.42015166157841       -1.72098377518287
H           10.90144549730192        1.43194934500895       -3.82449644563960
H            8.51434291728523        1.53079035982757       -4.39929476328733
H            6.93103618592379        2.63746066482637       -2.88788898250017
H            9.69862014380761        5.68433455676805       -0.73078343212949
H            7.56029454071698        9.64842271038862        3.07904322597935
H            8.89191666632069        8.51582898612931        2.86693789068634
H            8.28372270896769        8.84109383624820        5.34059164792804
H            8.10053915031519        7.16108866174751        4.81698213904121
H            4.51157569384072        7.44484889538302        4.69696970574654
H            5.86550937353587        6.33761000815752        4.41882226174813
H            5.20332446287819        8.80155688960295        2.69553371995144
H            4.99392036490025        7.13125538390348        2.19032892276072
H            2.88408628685045        1.99839859757380        3.57192921316019
H            2.88176108997050        0.98596163287663        2.13695009879418
H            0.51266332526436        1.33569361426425        3.06496686212725
H            0.67057614549254        2.00234014288952        1.43262244447117
H            0.83788506453178        5.37494213904001        2.67019143281550
H            0.81503320774196        4.39847742609727        1.19641829518663
H            3.13057591486328        4.56009121336292        3.23031307042899
H            3.16021674976530        5.12043805113519        1.56119005188269
