59
 energy: -11.178948605013 gnorm: 0.000630430805 xtb: 6.5.0 (97a52f5)
N            5.72584002169015       -0.63652683416703       -1.71166905613225
C            4.88517584502449       -0.38391537804693       -0.95839048498005
S            3.65862835941774       -0.01779456833410        0.17400391739426
C            4.53017569070632       -0.30819806858575        1.68573166204597
C            5.71548913102016        0.30304816498161        1.98262714954584
C            6.13431273674041       -0.11922910434967        3.27502199791137
C            7.32946741098371        0.18457381002749        3.94895848608558
C            8.31454807799903        1.12289327395429        3.38219820743390
C            9.67098266720331        0.79019733670258        3.30441320072641
C           10.58382842622143        1.66848426458661        2.76934030968439
C           10.17001124172372        2.89856270787858        2.29835076831352
C            8.83562416714479        3.24694379182248        2.36225957633499
C            7.91767175238628        2.37260803303256        2.89494456427597
C            7.55358946557781       -0.49168201309363        5.16660095674431
C            8.67162927117217       -0.41030256719476        6.04227249814869
C            8.44752914013427       -1.24729744623044        7.09583086664327
C            7.17519312717478       -1.86568144670287        6.92952824152128
N            6.61255098808040       -2.77788884278594        7.81710733213209
C            7.42199094321106       -3.56480826987776        8.76301047533480
C            7.42534821340469       -5.03099574282493        8.32967252751186
O            6.10182449085536       -5.53711383750421        8.19041910993108
C            5.31858757853046       -4.77842592400369        7.27568863637631
C            5.25470713751110       -3.31055961980852        7.69000496256469
N            6.67871859789788       -1.37533213844013        5.75132341512364
B            5.29878892422474       -1.63812118520146        5.11344471034555
F            4.34479985384755       -1.06484591336693        5.94511805172371
F            5.13317063665997       -3.00749657499756        4.96571118301558
N            5.16502499539235       -0.98798855569584        3.72108621698968
C            4.17078252230335       -1.15469717127630        2.79733512707068
N            3.07319980930406       -2.00135207517133        2.87079436695832
C            2.23235154106780       -2.37538517572185        1.72499791844198
C            0.79303167658150       -1.93499517520524        1.98030453614683
O            0.29794885921116       -2.49432609938373        3.19154498893424
C            1.09408045474769       -2.14518316059659        4.31857299704194
C            2.55394629871426       -2.55340240950439        4.12623460556557
H            6.24859701626052        0.97351368675065        1.33147593089123
H            9.99069011220579       -0.17962133181714        3.64350591214073
H           11.62465533950252        1.39432438432323        2.71324971267672
H           10.88750642383162        3.58530611789961        1.88007935435407
H            8.51342555602231        4.20826211049033        1.99666391325220
H            6.88120876634488        2.65365640361245        2.96428372086750
H            9.53358036205654        0.22039106208692        5.90770046114204
H            9.10818313031535       -1.37756401731786        7.93559932358355
H            6.98085828576383       -3.46309314855542        9.75906014329373
H            8.43703630678305       -3.16242045147645        8.82115395255543
H            7.94770335640601       -5.67170263988551        9.05219685604032
H            7.92787755077457       -5.15089812420738        7.36272621485538
H            4.32236835889357       -5.23761017696936        7.23099262966185
H            5.77241328218653       -4.88034605688488        6.28234183070383
H            4.75332404825518       -3.20915927246568        8.65731568992192
H            4.69231247533923       -2.70688861547488        6.97604970208691
H            2.27760785853266       -3.46327861743182        1.61548214682440
H            2.63664651271321       -1.95294950780818        0.80236196564689
H            0.11701405590795       -2.24242996160297        1.17158515328889
H            0.72772236785790       -0.84406370374306        2.06687627740430
H            0.64654573248699       -2.62912312126719        5.19675313213616
H            1.00729634455434       -1.06178747192282        4.46332746009326
H            2.65362732186064       -3.64217183174576        4.09208447581603
H            3.17315938127051       -2.20175179950489        4.95093001786812
