46
 energy: -9.107531431743 gnorm: 0.000738972387 xtb: 6.5.0 (97a52f5)
N            2.77872337283302       -3.18243090855203        1.26125153091444
C            2.96208169475624       -2.09966408404788        0.89576133146285
S            3.23336252589707       -0.49364636597779        0.38632650710013
C            3.82039328954452        0.28789063552239        1.84420270467487
C            4.31335071450571       -0.27148035783945        3.04397699586806
C            4.67689111858050        0.75106618954471        3.89003866000778
C            4.42273990432112        1.98030604925477        3.22170826093158
N            3.88845508995595        1.61902797515112        2.00341951369771
B            3.33590468730378        2.61727400280684        0.98232401849944
F            1.95477939555955        2.48950625208403        0.95690686841728
F            3.90855106063632        2.32841214137365       -0.24777761598297
N            3.69066897575164        4.05035396221894        1.41601005872524
C            3.49338464587102        5.21669955120889        0.70641685566797
N            2.92734384549750        5.39161413949250       -0.52726301185079
C            2.35707512007714        4.31259848585591       -1.33994962412103
C            3.23112997158508        4.08830001275035       -2.57035398075072
O            3.36696071944852        5.28692185749600       -3.32417947160905
C            3.90193670688961        6.36010777546696       -2.55644781703692
C            3.05894709575416        6.63332375639145       -1.31054511829559
C            4.02568755955849        6.25713059355538        1.53482439522482
C            4.49162357438284        5.70815957977139        2.68608156049853
C            4.27717218578142        4.29390370883431        2.63371003402197
C            4.63346085686522        3.32064227589467        3.59282337845911
C            5.23184353947812        3.68368751382599        4.88883713410821
C            6.36206491357432        3.01862872920962        5.37318335649859
C            6.91926179713455        3.36161325183005        6.58293537651247
C            6.36496662056117        4.37418124069336        7.33989020577688
C            5.24876738435773        5.04444931606947        6.88128550421721
C            4.68748881551818        4.70584406882104        5.67218840306210
H            4.38491295182268       -1.32591382199811        3.25217253274486
H            5.06923788558706        0.64189343786392        4.88670852089349
H            1.34607553627615        4.60489487686483       -1.63954855992581
H            2.26002037198384        3.40788014082438       -0.73821351230301
H            2.81718630298072        3.32057860760670       -3.23726662680864
H            4.23632399943361        3.76214631839939       -2.27633286167256
H            3.95861569317411        7.23715488276445       -3.21455074634097
H            4.92817269677563        6.08915615384403       -2.28179052023790
H            2.05640369865127        6.96635120408189       -1.59553503182861
H            3.49444932525728        7.42719104503104       -0.69801227467157
H            4.04439490313892        7.30704040885479        1.29976523287066
H            4.96937928186569        6.24052418923402        3.49058489077974
H            6.81158131609759        2.24774262260582        4.77202585560723
H            7.79289918946750        2.84079887425214        6.93954537850967
H            6.80302323391531        4.64090990406907        8.28770894802632
H            4.81457340932800        5.83310407587419        7.47386605743953
H            3.80313302226768        5.21286573113289        5.32731670222034
