35
 energy: -6.540343385481 gnorm: 0.000943751390 xtb: 6.5.0 (97a52f5)
N            1.26649151091701        0.56733956308032        0.69083324822048
C            2.35440674183827        0.39953217473545        0.34322707883208
Se           4.08272170816970        0.17104567248174       -0.19702596423964
C            4.85130109738274        1.81385359438813        0.44586439276885
C            6.32541921028184        1.93390283944999        0.09651350151992
C            6.95912993316622        3.23965981017407        0.58443380557322
C            8.43780892399140        3.35999133835795        0.21573967137300
C            9.06646536144961        4.66843212202239        0.67458162846190
O           10.43388384108086        4.75443353665592        0.29065467407836
C           11.07392271035471        5.94403911270457        0.63473297497982
C           12.40724873766466        6.09760974702112        0.21072925066604
C           13.11567497841562        7.22850734212343        0.49668075156185
C           12.53153819430984        8.27144630669961        1.22630916000557
C           13.23053232161368        9.46482347261281        1.54820407502249
C           12.62415170976452       10.42999641808475        2.25201275528499
C           11.25533451913937       10.28897927498383        2.70048379898625
O           10.75128362280437       11.20244957834789        3.34032754300084
O           10.56361001511079        9.13570388842930        2.39474507528933
C           11.19834119268959        8.14121436390880        1.66511419732893
C           10.49623031897305        6.97844873125078        1.35841177894076
H            4.70248315418368        1.85388272808774        1.52661297750248
H            4.28194150407936        2.63999134403511        0.01554483050778
H            6.44766328883312        1.84715856246013       -0.99017548839153
H            6.86901532156445        1.07798533273767        0.51515550175309
H            6.84193460623228        3.32223975811431        1.67115534307213
H            6.40733994867810        4.09125079243672        0.16979694201378
H            8.56259669145144        3.26679568152755       -0.86886535504412
H            9.00189776118137        2.52274121384855        0.64167148466043
H            9.01376712307271        4.75778375273579        1.76557971111281
H            8.53809752774013        5.52196915748366        0.23460976783217
H           12.85482955980122        5.29566430626023       -0.34922106193293
H           14.13442586267067        7.32958980801625        0.16398799695496
H           14.24910781357986        9.58056981002076        1.22007718104867
H           13.14042428756718       11.33879158782131        2.50391647597591
H            9.48409890024527        6.90540727690007        1.70544029528179
