37
 energy: -8.252547508705 gnorm: 0.000581477354 xtb: 6.5.0 (97a52f5)
N           -3.05028822668778       -0.48061915770257        0.10762161020283
C           -1.88972816367920       -0.41105649908234        0.08000993066768
C           -0.50348595417457       -0.34434620369664        0.04770229188608
C            0.28295916320316       -1.48704339163457       -0.04941123105225
C           -0.32412778622612       -2.83715434321247       -0.13184760604127
C           -0.00069087321727       -3.81762677774283        0.80652241996583
C           -0.55795040574109       -5.07133778622893        0.73155657765125
C           -1.44719303543663       -5.37941540542210       -0.28020413734799
N           -2.03948671343897       -6.71346667692155       -0.35525879375073
O           -1.73412260065306       -7.54682793950842        0.50487806925383
O           -2.82515833001839       -6.96240522513036       -1.27622393984593
C           -1.77481034725704       -4.41979075235769       -1.21908320662088
C           -1.22149428985709       -3.16394339586227       -1.14879687775816
C            1.68475063954219       -1.36442406199705       -0.05294112998432
C            2.30217780623881       -0.14108810776278        0.04683810215420
C            3.76875985027746       -0.01325034152750        0.04960612662575
C            4.40585797619938        0.80371670723392        0.98313941391748
C            5.77518800516106        0.91900019762482        0.99529898312242
C            6.54107141319665        0.22766147514625        0.07582974746056
N            7.99752833016777        0.34563253019639        0.09696975011404
O            8.52390317653640        1.03416307764758        0.97807105953560
O            8.65283411360560       -0.24800806096127       -0.76651810888106
C            5.92340245014933       -0.58184359097004       -0.85862862813921
C            4.55479699659692       -0.70443675666247       -0.87346665349114
N            1.51460611880647        0.97544603999130        0.14435213973014
C            0.13014170359298        0.94822155815708        0.14317842537548
O           -0.51818239963331        1.98841668857398        0.22100664276259
H            0.68221354267809       -3.57570623812615        1.60376914906932
H           -0.31412314790560       -5.82983751489877        1.45807237904836
H           -2.47081764473106       -4.67501616464283       -2.00203081350093
H           -1.47514499846160       -2.41829959939140       -1.88384653776847
H            2.28380503150105       -2.25428492585176       -0.12463751013358
H            3.81313850683462        1.32688146720400        1.71445976386186
H            6.27202824287485        1.54205461368639        1.72158695897135
H            6.53453581539348       -1.11106510513027       -1.57204679319184
H            4.07713444573300       -1.32376395414634       -1.61406641522161
H            1.94414158883080        1.89046362110879        0.18402884135294
