33
 energy: -7.253718796179 gnorm: 0.000385768915 xtb: 6.5.0 (97a52f5)
N            1.23015786013498       -0.30398277653605       -0.16576756325210
C            2.38961200568032       -0.23784964193078       -0.11831141691879
C            3.78637948918162       -0.16523145144175       -0.06466854561746
C            4.44487898977022        1.07324452216677        0.00026655394391
C            3.69527739161698        2.35172126512235        0.04049337322225
C            2.67392706163275        2.56108008946293        0.96579645622717
C            1.98738937509308        3.75406009397168        1.00112194458388
C            2.30938312225205        4.76466342238921        0.11800786570581
C            3.32277059800806        4.57931214834678       -0.80032312836616
C            4.01068361199875        3.38695148974990       -0.83878025324334
C            5.84434372138701        1.10807323999457        0.01752147704833
C            6.59433592017141       -0.04584966106483       -0.02482003080791
C            8.06490164060927       -0.02226507093986       -0.00507769572444
C            8.79640473544872       -0.94681939341587       -0.74803716295851
C           10.17345900044072       -0.93373536938974       -0.73018455994189
C           10.84752762007798        0.00051633711979        0.02999383131971
C           10.13978084192230        0.92375650738599        0.77283822118571
C            8.76268944997653        0.91461458554671        0.75672085087698
N            5.92220725837418       -1.23642930468622       -0.08077727913491
C            4.55975661541982       -1.34659464452027       -0.10035001610806
S            3.85392867589178       -2.85581843946863       -0.16626988458293
H            2.42809947741330        1.77390606503986        1.65734502208538
H            1.19583671850327        3.89798383719649        1.71809944909389
H            1.76999082598744        5.69728881235337        0.14518426728682
H            3.57479078625757        5.36836545696647       -1.48984171897009
H            4.79507864842558        3.23862211708829       -1.56074109014234
H            6.34072838437462        2.06008625731653        0.05716154255406
H            8.27215992190473       -1.66380602886156       -1.35530430621837
H           10.72583502269634       -1.65294483929580       -1.31254599769382
H           11.92506230827930        0.00925513272988        0.04383769119539
H           10.66611855606266        1.65158849918764        1.36848389049135
H            8.21328095416489        1.62431691262465        1.35048368772065
H            6.45987341084149       -2.09953017020652       -0.08458547486001
