54
 energy: -11.987575584766 gnorm: 0.000452674735 xtb: 6.5.0 (97a52f5)
N           -3.28004810519471        0.19425583227117        1.61891866939886
C           -2.22884030187655        0.04801726755150        1.14380577595119
C           -0.96643215485835       -0.12889106824101        0.57017629542163
C           -0.14753363626201        0.98726022238837        0.29149592919940
C           -0.57497659287698        2.37237094415718        0.60323712363398
C           -0.53449469681665        3.36322463839086       -0.37689527266387
C           -0.90388498605723        4.65766750182695       -0.08596598543214
C           -1.31689683771915        4.99030530408699        1.18878946529810
C           -1.35729890035828        4.02366704263336        2.17369081524613
C           -0.98778992829277        2.72861562275968        1.88605335279590
C            1.09703480630622        0.78610595096243       -0.28814029007809
C            1.56684591778554       -0.48598762517542       -0.59293140127687
N            2.86525892910158       -0.66875554061826       -1.19336992423757
C            3.89508607534997       -1.36463319727545       -0.50115569666300
C            3.69683871046082       -1.86229375841545        0.77749379729221
C            4.70400185310994       -2.52738433939634        1.44770759539553
C            5.93159515265258       -2.70089250230890        0.84667275279263
C            6.15398239203445       -2.20509564095360       -0.42108972493557
C            5.15414669109344       -1.53082870811976       -1.11278430206769
O            5.43131049319727       -1.03472839852054       -2.38528250847690
C            4.41837510246403       -0.35420819069755       -3.05831934018601
C            4.67385788198439        0.14502707921208       -4.33044437738495
C            3.69843594632068        0.81289439152580       -5.04111514597142
C            2.44680031464343        0.98946675744089       -4.49278117108275
C            2.17287118634311        0.50260610876874       -3.23034871879700
C            3.14154068083295       -0.16096869372913       -2.49329618221207
C            0.75569259394540       -1.57755780647832       -0.30618637399598
C           -0.50031800890600       -1.42606436021330        0.26367511948082
C           -1.31328452083517       -2.63637459733401        0.53391513695821
C           -0.78256459009017       -3.69291580514382        1.27297166517903
C           -1.52257205730216       -4.83035414606998        1.50759424789558
C           -2.80448620238135       -4.93809468943187        1.00612395181636
C           -3.34449471807666       -3.90415569029666        0.26751818782585
C           -2.60708575532705       -2.76533025266284        0.03136526356189
H           -0.21420897257615        3.10139812314906       -1.37064456406971
H           -0.86969998046033        5.41236742204922       -0.85449679583836
H           -1.60579960571439        6.00363740028474        1.41503352313374
H           -1.67685473723122        4.28311529705874        3.16968131219663
H           -1.00915128598512        1.97485569935992        2.65396935985695
H            1.72678605609446        1.63228533536538       -0.49198452671097
H            2.74363091125019       -1.71775755431596        1.25303943605827
H            4.53001260474943       -2.90929072687591        2.44019790932365
H            6.71926884552813       -3.21976743453082        1.36782118602428
H            7.11003008349034       -2.32901067539532       -0.89783962426238
H            5.65240625289064       -0.00436696048742       -4.75093155589545
H            3.91446798952573        1.19277143746506       -6.02614730311159
H            1.68204775140371        1.50650226405812       -5.04866040820175
H            1.19207701642203        0.63100822747052       -2.80928149119418
H            1.10799240642196       -2.56244765770439       -0.55123543693980
H            0.21589923847515       -3.60515672405391        1.66564307502563
H           -1.10020087201400       -5.63741654620336        2.08350745063201
H           -3.38249254884870       -5.82883063366068        1.19035597739586
H           -4.34462263007466       -3.98828958607406       -0.12506198255666
H           -3.02324125771609       -1.95976635983808       -0.54842427051636
