114
 energy: -23.087472501847 gnorm: 0.000161319778 xtb: 6.5.0 (97a52f5)
C           -1.79382816070140        2.69064536634705       -6.21545285983497
C           -1.23076925305345        2.71113482268513       -4.78315606090238
C           -1.68861374343158        3.99401042855294       -4.06379224631058
C           -1.80083952933955        1.49923376869171       -4.01987577184691
C            0.30496749135341        2.67887591448908       -4.84005478021135
C            1.04908038577194        1.64102450308859       -4.29098119422948
C            2.42489835940520        1.64400876992012       -4.34547096107569
C            3.11354911680082        2.69018334906082       -4.95436066970471
C            4.59867655739617        2.68749324510470       -5.01411770814100
C            5.26410991771155        1.79010571093463       -5.83086627287748
C            6.67538666790096        1.76188031898467       -5.88816826716898
C            7.43901714332229        2.64990659642191       -5.14989909941434
C            8.92144680738337        2.64480748520643       -5.26155752027679
C            9.59149828523733        3.69599619590345       -5.88850643148514
C           10.96457077252977        3.69114000249605       -5.99525198271788
C           11.69513799959483        2.63820727132370       -5.48088804695177
C           11.04847783265467        1.58475565616501       -4.86501126721819
C            9.67548461930203        1.58585361691614       -4.75494011421367
C            6.78271853456267        3.59830259352733       -4.29099981492416
C            7.50821693343566        4.49743799572128       -3.51463721573767
C            6.88033198938165        5.41365906519900       -2.67173896995168
C            7.61349004159306        6.33623168865872       -1.87717584677858
C            6.97038900860113        7.21577385891277       -1.06606337128961
C            5.56378166625990        7.23034248439865       -0.99608693628967
C            4.82567599485969        6.36505036035001       -1.73864164719181
C            5.45775118688460        5.42839015713118       -2.60063346669664
C            4.73076320861394        4.52664798159500       -3.37631661603800
C            5.35741642927090        3.61420984915187       -4.21989555219887
C            7.31425166336736        0.77321029232637       -6.82809657204202
C            6.57214253610702        0.67244076726590       -8.13482855070018
C            5.16129080772667        0.73881318255229       -8.09586746859792
C            4.41258039099347        0.71207668812536       -9.26038012555847
C            2.93263185142829        0.85068369340171       -9.21261063481163
C            2.34266318229252        2.08079271848772       -8.91783907287487
C            0.97247168508101        2.21241268859645       -8.87817035073432
C            0.16480888502629        1.12209465018001       -9.13531707071876
C            0.73120071041372       -0.10324424646789       -9.42768856883435
C            2.10128594939339       -0.24046274074267       -9.46596612252397
C            5.08271628074729        0.58416187854579      -10.52642150773520
C            4.37342338131197        0.56078454384010      -11.72379764343699
C            5.01643420717999        0.45470572077168      -12.95653643786602
C            4.30003739873645        0.43507108559310      -14.18389200669418
C            4.95767186489815        0.33725346541581      -15.36837876818247
C            6.36313289240647        0.25277811347784      -15.40338416115033
C            7.08550040490804        0.26692048946708      -14.25320469869567
C            6.43795188462913        0.36814394766192      -12.99208127603962
C            7.14890313082243        0.39184998156952      -11.79308026923485
C            6.50665450072462        0.49905143133463      -10.56316554369816
C            7.25045428083914        0.55111720578112       -9.33503899572531
C            8.73582518390803        0.47918284055542       -9.35631080894426
C            9.51429300977675        1.61844423883061       -9.16520606967024
C           10.88867588817130        1.53719243744200       -9.15588712020296
C           11.54195228541648        0.32431258514938       -9.33764616725154
C           13.07819821811311        0.27620584550740       -9.32406352935339
C           13.62248150163554        1.12540493798870      -10.48739557777685
C           13.59597505883973        0.83825376063186       -7.98722752096091
C           13.60761300552334       -1.16295660004980       -9.48027733909660
C           10.76241916215445       -0.80966069792129       -9.53590645441796
C            9.38731845549908       -0.73691341906041       -9.54495221246358
C            4.50791997203576        0.86035658796412       -6.74324061269968
C            2.37056107333725        3.72682595502559       -5.51350346692656
C            0.99473178815438        3.71630300154214       -5.45572291730441
H           -2.88345092386972        2.70372166110620       -6.20685567867751
H           -1.47182916123572        1.79174805631515       -6.73980514486404
H           -1.45424601339190        3.55324492722205       -6.78718083827972
H           -2.77494234800435        4.03014706701527       -3.98530712707645
H           -1.36462614403207        4.88611062982401       -4.59798518853037
H           -1.27607747666193        4.03829075857799       -3.05611708427791
H           -2.88903206134652        1.54447902860941       -3.98066213421324
H           -1.43507016717408        1.47456832233455       -2.99364654906821
H           -1.52872115807426        0.56389092046467       -4.50824275978842
H            0.54962056519204        0.81804630700339       -3.81159850975483
H            2.98810565961830        0.83480829926721       -3.91274544823500
H            9.01676665197145        4.51192136626582       -6.29238995570662
H           11.46961904215970        4.51007757030523       -6.48131508264902
H           12.77032881152949        2.64068134803891       -5.55599320868159
H           11.61945689134680        0.76109393032216       -4.46815057091273
H            9.16693203603390        0.76849155897366       -4.27288000157677
H            8.58137436747216        4.48605259427718       -3.56183689165232
H            8.68869735035945        6.32706397805507       -1.92897428512053
H            7.53766728014954        7.91082718456836       -0.46858895448329
H            5.07272799403597        7.93642265388347       -0.34631092140368
H            3.75062538659492        6.37797078629412       -1.68385043513035
H            3.65808540928618        4.53872528223560       -3.31893854295055
H            7.34741659958240       -0.21304175703776       -6.35231384139071
H            8.35534836616911        1.05369593608932       -7.01027788946957
H            2.97680027890185        2.92839912439433       -8.72110984298718
H            0.53068691407216        3.16790966026162       -8.64659849077032
H           -0.90761772879675        1.22771017601749       -9.11229128642360
H            0.09969833340468       -0.95377396824666       -9.62720227634301
H            2.54784382698393       -1.19380059757632       -9.69159891916236
H            3.30168462844606        0.63025036728083      -11.70113767140660
H            3.22579831815094        0.50053143605643      -14.15983177497673
H            4.40307524193553        0.32480018723228      -16.29257542022304
H            6.86591131729380        0.17680597780037      -16.35381773986210
H            8.15972819665892        0.20308347965547      -14.28232838948974
H            8.22123674931843        0.33198251226345      -11.82216979749745
H            9.02372976095227        2.56517415009133       -9.01603752819250
H           11.46842284857315        2.43067015667899       -9.00200791976969
H           13.31494647024282        2.16618984302600      -10.39400301009504
H           13.25393804169950        0.75165369382713      -11.44236829736582
H           14.71165807502133        1.10016238596081      -10.51239795738641
H           13.31226574508710        1.88196075372218       -7.86168773932948
H           14.68297850603595        0.78171626072491       -7.93459056505096
H           13.18754655879751        0.27494523364797       -7.14856454683611
H           13.29298640749570       -1.59710762272753      -10.42889506077932
H           13.25247127666524       -1.80091468534126       -8.67128816046424
H           14.69712744050106       -1.17825356637466       -9.45807975101308
H           11.23341289204248       -1.76542108074761       -9.68181575401684
H            8.79608153150533       -1.62483173286408       -9.69115180562441
H            4.44440789705283       -0.13090649201740       -6.28115816561460
H            3.47619101037227        1.20573539454710       -6.85408430036688
H            2.88946745939665        4.53656134893678       -5.99741462357606
H            0.44209629024376        4.52718310586646       -5.89758982703549
