41
 energy: -9.071672731979 gnorm: 0.000686354561 xtb: 6.5.0 (97a52f5)
N           -3.04271316605995       -0.33903007640915       -0.07188836240568
C           -1.88038754156768       -0.32385328213408       -0.02530471307362
C           -0.49296814486060       -0.33155562977426        0.02436897044712
C            0.27288779490771       -1.48367042779438       -0.14614093815998
C           -0.29477708979753       -2.80535026700274       -0.39323156627771
C           -1.60743562642593       -3.16564963534439       -0.50240050561674
C           -1.81363364450415       -4.54904351280193       -0.74284081906698
C           -0.66674384972949       -5.25846435063228       -0.82115737644106
S            0.69866553172464       -4.22777380834045       -0.60171155932627
C            1.67486715752628       -1.38663982958746       -0.07658327823037
C            2.31928487637929       -0.19813496398809        0.15924880448322
C            3.78371091396678       -0.11709557062650        0.22253562219372
C            4.58520476661090       -0.94601658755825       -0.57446706567430
C            5.95904275363845       -0.87474012978035       -0.53263559933018
C            6.55879057975307        0.04035099588814        0.32207585965657
C            5.77336826855500        0.87339418691343        1.12557831464034
C            4.39979858208625        0.79927254168758        1.07858975592960
C            6.67870759346355        1.75390547558829        1.94697909671931
C            8.06861331211718        1.34811973751893        1.53109173826973
C            9.30153112040264        1.81266602395941        1.94108738308451
C           10.44231111061648        1.25966466240533        1.38834898518913
C           10.35400806537736        0.25488247810053        0.43790403709853
C            9.12596097532788       -0.21647689878209        0.02164862154667
C            7.97668191056956        0.33437599982250        0.57173900340595
N            1.55308166119506        0.92496339952121        0.32363148398352
C            0.16706905606938        0.93302193093844        0.26505740995205
O           -0.46127275765723        1.98166267712174        0.40991842283651
H           -2.42227144857419       -2.46741882414379       -0.41640328389146
H           -2.79480923519219       -4.98949973892782       -0.84922377842066
H           -0.59596442764791       -6.31581232916625       -0.99356067447234
H            2.25528439296710       -2.28225357392828       -0.19290410883450
H            4.11130024998444       -1.63744353262638       -1.24887750608763
H            6.56814579748387       -1.51021015739851       -1.15077550665693
H            3.80877747843500        1.43050873130579        1.71548609898804
H            6.52419115293627        1.58638592999357        3.01809307347125
H            6.49756849766055        2.81261994392327        1.73361447337485
H            9.36194363712682        2.59345435248551        2.67878957080403
H           11.41055945279996        1.61513123844054        1.70032780366349
H           11.25461024800515       -0.16292345047522        0.01887829818320
H            9.04893406017963       -0.99531570523775       -0.71608042709741
H            1.99975593414957        1.82156197684535        0.45853424114412
