27
 energy: -5.892804639884 gnorm: 0.000824440767 xtb: 6.5.0 (97a52f5)
N           -3.04098995776225       -0.28460167786096       -0.21725559960235
C           -1.87882678486640       -0.26966004390333       -0.17299537598681
C           -0.49174886462652       -0.28532457159321       -0.12719988229987
C            0.26383991737529       -1.45509899044615       -0.20681507018712
C           -0.32051326343241       -2.78475082893051       -0.34439833835788
C           -1.63604843772840       -3.13730835247566       -0.44281668889961
C           -1.85846589615023       -4.53352564369564       -0.56718334854180
C           -0.72123645545268       -5.26163373516358       -0.56486711340225
S            0.65307854707367       -4.23315045379868       -0.40888389638102
C            1.66690446083254       -1.36535928992840       -0.15158667629348
C            2.32109847517683       -0.16494836953781       -0.02127131692220
C            3.76457485804746       -0.07103448987308        0.02506042199261
C            4.66979235919111       -1.08822567489064       -0.08227479861516
C            6.02105260812407       -0.65961399763779       -0.00367332478902
C            6.15607358431384        0.67431504032198        0.16419395452834
S            4.61134955569406        1.43755396237821        0.23199124496495
N            1.56318853258076        0.97241322505243        0.05927799006352
C            0.17836785142275        0.98677008732604        0.01289795410338
O           -0.43708951846478        2.04916291557441        0.08939259133694
H           -2.44425560601112       -2.42576281832913       -0.42784603439214
H           -2.84380268170013       -4.96881584472527       -0.65640467663353
H           -0.66227203103780       -6.33056991964694       -0.64956886333091
H            2.23766249461940       -2.27201186497343       -0.21202346015071
H            4.39352968618198       -2.12178103669079       -0.22003719538082
H            6.85986277676524       -1.33746511187827       -0.07537597337468
H            7.08701540444329        1.20343007280831        0.24478861216904
H            2.02080838538919        1.86908741251686        0.15149486437955
