94
 energy: -21.834953196502 gnorm: 0.000785032041 xtb: 6.5.0 (97a52f5)
N           -3.42245505122661       -1.45835674276507       -0.10194534423811
C           -2.42718858073253       -0.86056095771712       -0.06481388529137
C           -1.22779751497653       -0.14195963341382       -0.02650151604736
C           -0.00347429580125       -0.82500602123880       -0.00147115787543
N            0.01258803338753       -2.26473164128696        0.00213675227656
C           -0.22782943450796       -3.10123475956286       -1.10511294348897
C           -0.52843414551445       -2.79181784239200       -2.43009469766594
C           -0.71686930112311       -3.82091047800027       -3.31917911205746
C           -0.60932068214353       -5.15401176290225       -2.91180776475175
C           -0.31108414280762       -5.47478777954465       -1.60938927178295
C           -0.11709476541478       -4.43978072350756       -0.69306555709651
C            0.20092689917780       -4.42976082296695        0.71498578038207
C            0.42030096610805       -5.45127604839884        1.64067249955989
C            0.70885403647300       -5.11140604618005        2.94047690389090
C            0.78114332615442       -3.77246880825392        3.33635118331004
C            0.56654323830297       -2.75649851891609        2.43817975305496
C            0.27514513211983       -3.08541307462663        1.11588243706463
C            1.20538768804597       -0.11486956075017        0.02406327934470
C            2.42026620615777       -0.80723554354833        0.06263137133675
N            3.42869465758573       -1.38270961706329        0.09835578295686
C            1.18790829187062        1.28497869821572        0.01781656679156
N            2.41437503839166        2.03471341710969        0.01300584982182
C            2.78953608236063        3.01217708767072        0.95650496648273
C            2.22424758554317        3.35717991675041        2.18256695380459
C            2.77158672685611        4.39517926242289        2.89430683014887
C            3.88110248044370        5.09351124078834        2.40965584650415
C            4.45895483103749        4.75800407497393        1.20914231555481
C            3.91256372430669        3.70456391091071        0.47418103609881
C            4.25433393342063        3.12815295059851       -0.80309092291746
C            5.24046023845230        3.43634714156416       -1.74156983568583
C            5.28523909455130        2.71623737952867       -2.91071889259655
C            4.36285928921715        1.69698286545929       -3.16439573134457
C            3.38518517605107        1.38522265354093       -2.25283533000265
C            3.32876267859740        2.10242229999605       -1.05871667006889
C           -0.03461952460823        1.96920462275275       -0.00070408575667
N           -0.05107094052027        3.40617536724405       -0.00499251415903
C           -0.57096028493650        4.23484131397686        1.00797014202843
C           -1.15697407314647        3.92097931632131        2.23309832584529
C           -1.57146616777413        4.94254325671008        3.04971563985787
C           -1.40472391652709        6.27819206087522        2.67219529244174
C           -0.81812947805741        6.60629495669245        1.47428719798832
C           -0.39397567909803        5.57690202545719        0.63219544697326
C            0.25546865082875        5.57870166358098       -0.65446291499327
C            0.66328775223286        6.60992918162750       -1.50234015681677
C            1.25880411341440        6.28447806895632       -2.69658636805652
C            1.44991061238248        4.94959345030791       -3.06519947444073
C            1.05005605727402        3.92617716535282       -2.24370490706095
C            0.45466401522450        4.23770915056180       -1.02256778846318
C           -1.24142439540939        1.25783231614792       -0.01949293647758
N           -2.48432714288587        1.98017271940925       -0.01758882858922
C           -3.39569394270947        2.04008581785763        1.05717890481758
C           -3.43342143106602        1.33345508347746        2.25830444865856
C           -4.41413032515981        1.63429151146599        3.17036189394524
C           -5.35838237665697        2.63160037966977        2.90985987182320
C           -5.33255695616673        3.34070594805924        1.73343461092185
C           -4.34266350224160        3.04442009084144        0.79505968516655
C           -4.01752817620392        3.61486060753015       -0.48924660829944
C           -4.58907588677751        4.64813090304352       -1.23364530852277
C           -4.02206907513269        4.98350479757281       -2.43936489957977
C           -2.89829067909322        4.30524653855743       -2.91970238442971
C           -2.32646836736043        3.28681010499172       -2.19901540323585
C           -2.88186604444433        2.94131131386715       -0.96860101213661
H           -0.61303318047755       -1.76298191423066       -2.73135280050968
H           -0.95334004236533       -3.59871547871508       -4.34678520601963
H           -0.76313526052489       -5.94144521578103       -3.63114959933646
H           -0.22628769170240       -6.49810892816994       -1.28903505954161
H            0.36261113898127       -6.47923741323455        1.32930141903176
H            0.88221177595648       -5.88819072641455        3.66690766963933
H            1.01059653403597       -3.53514088253571        4.36215024289861
H            0.62420636753841       -1.72308685147083        2.73003666767213
H            1.36869326876011        2.81566340276796        2.54374383776979
H            2.33761755156018        4.67890220820200        3.83884558446696
H            4.28846947013959        5.90672178655442        2.98740630691990
H            5.31182187748270        5.29171545609690        0.82886532404014
H            5.94090853605869        4.22814679565123       -1.54342423645349
H            6.04080925656401        2.94131245150416       -3.64524580909844
H            4.42040528516494        1.14864096726649       -4.09019233151446
H            2.67118355553082        0.60292773466273       -2.43839584012101
H           -1.27954194705391        2.89115919487396        2.51469711883389
H           -2.03270358362939        4.71259667600799        3.99598190986826
H           -1.73881445082747        7.06082142622680        3.33304338318264
H           -0.68058170650922        7.63147191519633        1.17929667961887
H            0.50830464428367        7.63440973603041       -1.21365835971241
H            1.58112381233379        7.06860519084002       -3.36147685777890
H            1.91850020003301        4.72164839073634       -4.00832677665482
H            1.19152209299844        2.89682100032983       -2.51811012070077
H           -2.70278476165463        0.56792046756101        2.44891823114172
H           -4.45711224249329        1.09436012762910        4.10187075743963
H           -6.11594127513316        2.84837401701277        3.64484469548155
H           -6.04978930707033        4.11600218222817        1.53008914207138
H           -5.45224401911089        5.16716186581751       -0.85630864608465
H           -4.44923812750088        5.78096259130397       -3.02472257626152
H           -2.47309613920401        4.58864899300029       -3.86831760267872
H           -1.45989190789333        2.76074658362665       -2.55678049252773
