96
 energy: -21.521331302450 gnorm: 0.000704043535 xtb: 6.5.0 (97a52f5)
N           -2.98296812104884       -0.57846761443903        0.30581925385475
C           -1.83036617017518       -0.50118126811568        0.18034792957552
C           -0.44655467421866       -0.40719586197120        0.00213499571955
C            0.21812337826684        0.82224037717555        0.13652081197181
N           -0.45148550362002        2.00116512345460        0.61196263782119
C           -1.07007996973893        2.13997317153283        1.87216823900479
C           -1.34833518526523        1.19585520996078        2.85926247455138
C           -1.92656396420344        1.61389272176809        4.03182043648702
C           -2.23111161816097        2.96194740129516        4.24259999647066
C           -1.95889242732805        3.90711969126922        3.28293733591873
C           -1.37110328678727        3.49601733736084        2.08486790881174
C           -0.91980431331878        4.22200381233640        0.92197936175148
C           -0.93933359708017        5.57845434436222        0.59153528322438
C           -0.39610019386616        5.97261638910715       -0.60750628588802
C            0.16853712631446        5.04037308751127       -1.48335744431103
C            0.19767556703782        3.70353027978683       -1.17109480956648
C           -0.34971225622775        3.28655040745915        0.04157689592102
C            1.57490201113711        0.89665872436455       -0.12123379857520
C            2.32007369075592       -0.21737974132816       -0.48273560543976
N            3.74700756214744       -0.13064891823830       -0.58629633636433
C            4.53746325553787       -1.31087772846016       -0.35850880722031
C            4.58804738763039       -2.35807877467958       -1.27364860029238
C            5.33923965169104       -3.47879446733592       -1.00531356333783
C            6.05131847645837       -3.56690446721427        0.17467128280095
C            6.01747280691446       -2.52824844230205        1.08418191843982
C            5.27466758555188       -1.38994650055760        0.83006924636345
C            5.15717597844478       -0.22419826626492        1.82677249475060
C            3.83114923141768       -0.37310852858988        2.59132897329678
C            3.34683584758740       -1.62768789568943        2.93007937695939
C            2.15630825956722       -1.77014718502184        3.61132388408604
C            1.42903691558109       -0.65540907958414        3.96939516489852
C            1.89970499784019        0.59999488603234        3.64918963316558
C            3.09330829497734        0.73797192448084        2.97270356893079
C            6.35271258318984       -0.21725021511733        2.78766777569772
C            7.63834733736003       -0.09122587330330        2.28395869601315
C            8.73177317451101       -0.07879999341515        3.12493420408114
C            8.55470811909177       -0.19259071240591        4.48763444346227
C            7.28278096285155       -0.31800749925886        5.00503875272212
C            6.19199890909492       -0.32950416661320        4.16070948251333
C            5.11651839133486        1.08377114287458        1.01873034415858
C            5.69293359002325        2.26149159652074        1.45793903024601
C            5.56371064106363        3.42633358988805        0.72720977868170
C            4.85003011021071        3.42812514224550       -0.45507286118458
C            4.26422539173554        2.26832395472832       -0.90619974976749
C            4.38526102315101        1.09026096590670       -0.17540808749217
C            1.66033560142995       -1.43460680619322       -0.58125745596141
C            0.30097270949548       -1.54442509879494       -0.34533165266836
N           -0.31515457930312       -2.84284322150114       -0.40135931993913
C           -0.51287631535564       -3.62977842595311       -1.55238284468719
C           -0.20849637298041       -3.37928295333366       -2.88915597081024
C           -0.52036544174104       -4.33481888901173       -3.82485053896935
C           -1.13050299962636       -5.53667208420225       -3.45196980228724
C           -1.43618759913678       -5.79843362330947       -2.13789706710983
C           -1.12590188759316       -4.83689856280150       -1.17419532205773
C           -1.30222294708884       -4.79805200511317        0.25902709584258
C           -1.84097352833217       -5.70729500480318        1.17155712214493
C           -1.85166259181746       -5.37458504907432        2.50516661393510
C           -1.33338877051609       -4.15362345930993        2.94847414526870
C           -0.80332062706010       -3.24812314781940        2.06327978349770
C           -0.79233150504499       -3.56802143208661        0.70719402277925
H           -1.11169854013290        0.16174645703106        2.68591620501196
H           -2.14990092631452        0.89320051529766        4.80123909892342
H           -2.68326137657920        3.26347719191032        5.17313902772828
H           -2.18165277003003        4.94746649726073        3.44139847794602
H           -1.37149915127988        6.29018523247991        1.27251998316885
H           -0.40412003893818        7.01570881069370       -0.87798052559734
H            0.58655923145728        5.37730778362233       -2.41771379813289
H            0.62683380456425        2.97942150176098       -1.84034394809386
H            2.06630215735880        1.83883927260430        0.02335323921393
H            4.04297439227123       -2.27144091267764       -2.19736432168378
H            5.37230671689163       -4.28778533647061       -1.71656795974882
H            6.63542322428941       -4.44748855690753        0.38631734843633
H            6.56678878205645       -2.60280164422083        2.00628061668858
H            3.90920350999347       -2.50005433960999        2.64784451555197
H            1.79410212723568       -2.75370871674154        3.86191448536002
H            0.49839698494044       -0.76402976238180        4.50180837752021
H            1.33077063622975        1.47411474260787        3.92012843325416
H            3.45448911996284        1.71957248870673        2.72223227915929
H            7.77386112472305       -0.00144165016901        1.21969790308388
H            9.72415525388560        0.02047672405046        2.71647410421130
H            9.40783643718345       -0.18297036112402        5.14625421250809
H            7.14029375902006       -0.40693509410892        6.06967800090059
H            5.20193760802169       -0.42587565922246        4.56944297321734
H            6.23625103047709        2.26658369121066        2.38650478924568
H            6.01868573455767        4.33638416585541        1.08241472650396
H            4.75006456696268        4.33819701707449       -1.02359424690754
H            3.70553930509188        2.25619767429175       -1.82574968878501
H            2.21271932594163       -2.32689038956035       -0.80055731283016
H            0.25813639331514       -2.45046787167886       -3.16508202292738
H           -0.29390839016611       -4.15570825713032       -4.86309544595967
H           -1.36447115079647       -6.26800630160954       -4.20807652603575
H           -1.90481581015848       -6.72095433964362       -1.84392551021095
H           -2.23450474568028       -6.64624455804907        0.82433368307838
H           -2.26365530276217       -6.06586068949661        3.22187739945056
H           -1.35085842498021       -3.92072635127316        4.00047295238039
H           -0.39472472120994       -2.30936729278164        2.39116400242246
