53
 energy: -12.106771635452 gnorm: 0.000543902075 xtb: 6.5.0 (97a52f5)
N           -3.11516389950750        0.03021544608797       -0.22195484968985
C           -1.95480104565456        0.01986797630014       -0.16892290055865
C           -0.55599121478195        0.00958865206859       -0.10445123116633
C            0.16094589577371        1.21498725718733       -0.04972982747949
N           -0.51961112926018        2.48319244128881       -0.05194617136859
C           -1.37892568823372        2.97387057755593        0.95182301937394
C           -1.80434597115468        2.39882448992247        2.14825106200235
C           -2.65000813579749        3.11408713941471        2.95961563296440
C           -3.07695205878286        4.39662903738184        2.60307835836955
C           -2.66046416272048        4.98110606494325        1.43134946017538
C           -1.80046077762073        4.26624488075960        0.59598211665912
C           -1.17587598408637        4.58877917309107       -0.66499714849408
C           -1.22841602189832        5.72024081768018       -1.48081905122136
C           -0.50236566855845        5.72523312632437       -2.64742723087566
C            0.27411619356303        4.62308855572398       -3.01729365837655
C            0.33579764925696        3.50308556209300       -2.22529773722244
C           -0.39260423264243        3.48321629921829       -1.03689641248573
C            1.54905416028051        1.18668658619938        0.00723949469673
C            2.22973218505377       -0.00948922454791        0.02282959046992
C            1.53442499661083       -1.19634511672731       -0.02517368027405
C            0.14667403556263       -1.20554674777177       -0.09619967255360
N           -0.54822066893020       -2.46381072424066       -0.17149150810746
C           -1.30809805419590       -2.93412524524589       -1.26141253410188
C           -1.59695496266295       -2.34592101990638       -2.49172601582976
C           -2.37152497172865       -3.03947081171564       -3.38838086742158
C           -2.86017043695249       -4.31338604354922       -3.08391526044755
C           -2.57686853081981       -4.91113596447865       -1.87952456373995
C           -1.79059558139418       -4.21832273631623       -0.95744188202170
C           -1.30537222169763       -4.55769788219402        0.35926804312868
C           -1.46376806897185       -5.69074959747468        1.15902767788929
C           -0.86101130122223       -5.71479830559533        2.39363229840943
C           -0.10417733636632       -4.63029845619220        2.84698002353857
C            0.06036287190000       -3.50881008250520        2.07194877796733
C           -0.54257258492155       -3.46955593987714        0.81573473228851
H           -1.47414173379487        1.40965943871322        2.41074332744141
H           -2.99240499168021        2.68020039591626        3.88464301466073
H           -3.74214564050126        4.93433925045149        3.25845287034504
H           -2.98094941104024        5.96930914181566        1.15257596100231
H           -1.82859477329644        6.56415981591058       -1.19011040071978
H           -0.53152748251579        6.59110396581701       -3.28818538142919
H            0.83234216083193        4.65412076326138       -3.93850060710084
H            0.92722518327605        2.64902537607973       -2.50291279163599
H            2.08339678780100        2.11966586754436        0.04810888956020
H            3.30617394098078       -0.01676127268844        0.07152920784130
H            2.05764219810191       -2.13649301808920       -0.02046672988781
H           -1.21779686089833       -1.36473072863041       -2.71494582321648
H           -2.60869464760671       -2.59513182232627       -4.34102400983844
H           -3.46732804682907       -4.83388709189578       -3.80608023023677
H           -2.94562030528205       -5.89279055002851       -1.64010341251630
H           -2.04812838688556       -6.52099084946634        0.80386286077517
H           -0.97266439787949       -6.58226090658290        3.02307493203976
H            0.35676481096114       -4.67642851423003        3.81993309965983
H            0.63796431881537       -2.66836944647501        2.41293713876257
