63
 energy: -14.647882920545 gnorm: 0.000743483856 xtb: 6.5.0 (97a52f5)
N            3.42782836205388       -1.37696862490307        0.25394416312846
C            2.41315729201993       -0.81788688734840        0.16826029143914
C            1.18595438687739       -0.15191705578931        0.07263309938679
C            1.14473728686748        1.24859188921165        0.03632909152616
N            2.37801544662548        1.98883310821022        0.06855758584862
C            3.41093931951840        1.97154953760967       -0.88992414713743
C            3.54762115325520        1.24528110793583       -2.07145511572819
C            4.66899798570444        1.43981978547747       -2.83870793131876
C            5.65682372596696        2.34992237566295       -2.45254587511417
C            5.53282621353572        3.08090949627972       -1.29577513386670
C            4.39795062479086        2.89496208258482       -0.50558078633654
C            3.95308585155920        3.51257747560417        0.72170544619335
C            4.51247586218947        4.48956640299834        1.54626208257894
C            3.81948304703579        4.88187404762906        2.66640468485068
C            2.57748764617178        4.32169363458727        2.97933083240165
C            2.01382739635422        3.36127309756189        2.17689576938945
C            2.70600044142642        2.95114059410885        1.04005740945664
N            0.01424870812163        1.95172351462477       -0.00734194756436
C           -1.13092815925238        1.27190571626903       -0.03774164798495
N           -2.34701519463257        2.03899587175767       -0.08814725968341
C           -2.63954247407930        3.00284459956728       -1.06953064586224
C           -1.93111063903739        3.37791457553166       -2.20850916823516
C           -2.46189169882886        4.34571828033959       -3.02440717316410
C           -3.68720468613198        4.94748396814131       -2.72325522368134
C           -4.39611148989611        4.58977392102355       -1.60150874649930
C           -3.87024861041838        3.60564846040202       -0.76346440816929
C           -4.34154669745855        3.01214703464652        0.46572751889215
C           -5.47585362988512        3.23892468181258        1.24601979466467
C           -5.63066779483420        2.52085562957681        2.40711987715565
C           -4.67385508607888        1.58413336725272        2.80743464216491
C           -3.55316084268517        1.34993632157588        2.05032026021127
C           -3.38580991820696        2.06206113132002        0.86410613258452
C           -1.20171416171481       -0.12811225992648       -0.04481721242218
C           -2.44158760860126       -0.77163242397096       -0.12977219198857
N           -3.46697214261247       -1.31186102934537       -0.20837427117458
C           -0.01542854456432       -0.86473545823762        0.02160350669429
C           -0.02952915314016       -2.34951688570929        0.03418152081711
C            0.37970782716602       -3.05737469108391        1.16290994427170
C            0.36953071150313       -4.43381894818166        1.17096658239413
C           -0.04905094066388       -5.12973931249472        0.05466832363237
C           -0.45831792233588       -4.44457746485781       -1.07166205122145
C           -0.44936924406208       -3.06816398457851       -1.08373182319957
H            2.78266533810806        0.54637070256585       -2.35875958291759
H            4.79080579106038        0.88221267790379       -3.75270969226142
H            6.52706832231561        2.48168525903845       -3.07413437785037
H            6.28539083282730        3.78866457777410       -0.99650460576771
H            5.46704819555680        4.91886436242880        1.29869882469442
H            4.23793368032210        5.63506244459289        3.31343589764558
H            2.05493270756795        4.65075573307355        3.86235030324278
H            1.05516848844429        2.92790436278086        2.39833736487966
H           -0.98595890039037        2.91196364329225       -2.42158630797951
H           -1.92606418340474        4.64827416847853       -3.90897025732868
H           -4.08008896203182        5.70526307338299       -3.38088736726663
H           -5.33844080099965        5.05039658652635       -1.36353951843308
H           -6.20386761420910        3.96753617903595        0.93626157481988
H           -6.50117143227429        2.68365982487686        3.02095310078995
H           -4.81967186952920        1.03684775188810        3.72414542808486
H           -2.81230561376075        0.62997239614509        2.34861796608338
H            0.70692764771916       -2.51003013462178        2.03011535186335
H            0.69130402591308       -4.96904317735344        2.04937446363425
H           -0.05578222435851       -6.20738437594740        0.06243885377522
H           -0.78700543651756       -4.98804178518466       -1.94242700860397
H           -0.76928064199003       -2.52885095355347       -1.95869621043720
