72
 energy: -14.627604879652 gnorm: 0.000844860580 xtb: 6.5.0 (97a52f5)
N            2.17236814049103       -0.46039711913999        2.76595106427217
C            3.15776499524800       -0.56433145312057        2.16060521355177
C            4.37326089059294       -0.60459332560196        1.47477794941903
C            4.91253893781919       -1.64985737114960        0.74087620866806
N            4.34513349971090       -2.95498460238820        0.59883607534203
N            4.09535016919392       -3.57404450276074       -0.56212895828158
N            3.65273977967698       -4.74481756504078       -0.33217417030625
C            3.58550050348300       -4.94128473022718        1.00856115619470
C            4.03306647124119       -3.78959093489185        1.65296278226765
C            4.45851771707505       -3.63200764438128        3.05262751875257
C            5.81470545218331       -3.39297944409933        3.28863679825696
C            6.31503971985667       -3.31032804612755        4.56393167867394
C            5.46812282891496       -3.45541154711438        5.64053717529566
C            4.12025227732022       -3.66418833734152        5.43203804638457
C            3.58998291534515       -3.75478260399016        4.15580930001244
C            2.10088666335291       -3.82164494812264        4.00762094955961
N            1.60137957170202       -4.72818556798125        2.95791151886688
C            0.55501247388977       -4.35654145263807        2.09548407873767
O            0.13158088790831       -5.13738325320022        1.26863028231838
C           -0.03798938995577       -2.97925282126289        2.19653650949507
C           -1.19761952737696       -2.77377655406708        1.23409024633990
N           -1.74880856804930       -1.43003944904421        1.28935621451335
C            2.21874039778204       -6.01024712779981        2.75931853868663
C            1.83209387194495       -7.13292459938202        3.48160339210098
C            2.33626496307175       -8.37408138238599        3.16291127043713
C            3.22445576983896       -8.51786868375568        2.11225031164341
C            3.62239628661841       -7.41787805829403        1.38543151761224
C            3.13981646188272       -6.15425913729127        1.70309143208513
N            6.16774081142655       -1.29114160192480        0.28838238903098
C            7.12729685686607       -2.27697132465055       -0.22888745714162
C            8.19923299887417       -1.66144717211433       -1.15227198508789
C            9.52649261477292       -2.20923168491068       -0.60194984953846
O           10.01391210507644       -3.30525371890299       -1.35844357094922
C            9.18303776666951       -2.64026569203607        0.84943475904566
C            9.51591939212912       -1.55929507418358        1.87831506314916
O           10.88349102457369       -1.21112707170747        1.88758014140281
O            7.78237670136441       -2.97144301342589        0.85234606279826
C            6.46316596227673       -0.01004359430688        0.75323862742863
N            7.56610441134592        0.73307720479823        0.61944871412209
C            7.47677065864460        1.88852362255319        1.22986059204159
N            6.49084363831829        2.43439812599048        1.94423866842240
C            5.39405401602027        1.70154104763614        2.08024906517519
N            4.31033821144522        2.14324057500027        2.80597571869678
C            5.35235180231304        0.42821812956270        1.47052623040641
H            6.47147973909237       -3.27502163208279        2.44239474411384
H            7.36635578716078       -3.13430625164526        4.72242063104441
H            5.85504739519261       -3.39038022074374        6.64428653093396
H            3.45937865300826       -3.73881782135967        6.27879360392255
H            1.73864639944191       -2.81000833421405        3.81709120158744
H            1.64575636357322       -4.13910031444361        4.94951311379988
H            0.73465290418766       -2.23225596188597        1.99056969636030
H           -0.37808498622260       -2.80181438896079        3.22063739301743
H           -1.97953416223894       -3.51870862916718        1.43561800965395
H           -0.85276652866994       -2.97338278719846        0.21118367081538
H           -2.03979249410309       -1.19769426296788        2.22598904084735
H           -2.54283645703052       -1.32368539143094        0.67705237737818
H            1.11493508728210       -7.01818557523366        4.27526138423342
H            2.02759555808248       -9.23919253730383        3.72650199375153
H            3.60835624267663       -9.49349034203596        1.86336414283744
H            4.32278523534987       -7.52069146457810        0.57495534097573
H            6.55020802806482       -3.04515155910894       -0.76309911714845
H            8.15892465300009       -0.57069710436324       -1.09723323871701
H            8.06341267410003       -1.94700503512259       -2.19925396135761
H           10.31734651917295       -1.44242721192386       -0.59924327575794
H            9.35971603199718       -4.02904671136813       -1.34610406544685
H            9.72593691976775       -3.56573325972558        1.08768775230957
H            9.20755137899962       -1.86581219946698        2.88470650453349
H            8.95651549687978       -0.64877361367097        1.64298692542901
H           11.43742055635408       -1.98423173852955        2.10937675648003
H            8.35686676273019        2.51174893843535        1.13941728777142
H            4.33681183835114        2.98936930750482        3.33933796163012
H            3.51724127089973        1.55239960784390        2.99658032507869
