60
 energy: -11.363510132688 gnorm: 0.000886969006 xtb: 6.5.0 (97a52f5)
N            1.56608300720178       -0.12669217162438        0.98733628208505
C            2.64397262627400       -0.37967867645812        0.63780574159953
C            3.96323534018217       -0.57846292910200        0.22588604156072
C            4.59839831938060       -1.76509219204382       -0.10114847748448
N            4.01097300588052       -3.07448836041726       -0.08246105014040
N            3.17227751198500       -3.53485380174109       -1.01841248365325
N            2.88692895965323       -4.74533724064202       -0.76099584447292
C            3.53880764484194       -5.13334619116771        0.36508846951173
C            4.27835657482802       -4.07590491122463        0.82667112467510
C            5.15572853297810       -3.94849751035374        2.02088882412281
C            5.94249804273074       -5.23308420549766        2.35187477389175
C            5.34096732037426       -6.01486793172974        3.52751705255458
C            3.93241924243764       -6.61724963170536        3.53024470807995
C            2.90323474224100       -6.54530796437731        2.38562004859381
C            3.43083036594159       -6.50961158099245        0.93734263793395
C            5.15137291957281       -7.52362927526816        3.42917396693562
C            5.52962927284098       -8.41401014917739        4.61166979444106
O            4.90750162656136       -9.68174402196614        4.57904934407625
N            5.90849153320256       -1.49600299421342       -0.45328024237507
C            6.91159944955685       -2.53673592278597       -0.73467108896505
C            8.02475284315491       -2.06826803297501       -1.69803194720956
C            9.33284392544579       -2.32620735572854       -0.92699981227023
O           10.03621345103552       -3.45601472377658       -1.41744355545569
C            8.87860737361261       -2.54393964222555        0.54168902395790
C            9.00881953320158       -1.28284036370198        1.39589743017326
O           10.33311448954660       -0.80047843748775        1.46695250750207
O            7.52168644595730       -3.01521460460769        0.47952739823407
C            6.13756751716061       -0.12703709924021       -0.33241571929885
N            7.23949811936178        0.59638671139119       -0.55530626543713
C            7.06191130345263        1.87416600445565       -0.33101043694062
N            5.98769257768379        2.55767562087183        0.07022919151714
C            4.89157177515871        1.84545997855316        0.28643185071054
N            3.71697203326134        2.43166351168294        0.70727703934551
C            4.93956585698950        0.44861645882118        0.08161666461527
H            4.55177311004467       -3.64762354841972        2.88380683128943
H            5.84622872992750       -3.11497516323891        1.84323458224655
H            6.00804584126930       -5.86575406438914        1.46168514227760
H            6.98816751687097       -4.99258723050376        2.58560249403119
H            5.67502133249621       -5.62488212517046        4.49496612454569
H            3.43654863047595       -6.62215933991564        4.50705710223987
H            2.26241348282405       -5.66895417931556        2.53895200482615
H            2.23245170189121       -7.40673269156710        2.49911942983200
H            2.75234768817038       -7.07173819319491        0.28333444069085
H            4.38715695177146       -7.02966242167777        0.84954688958712
H            5.34311295013756       -7.99587300571012        2.46311397217935
H            5.28497218084402       -7.92523335682078        5.56249848259586
H            6.61197491050396       -8.59016884900832        4.62227054632616
H            3.93652484253364       -9.58907419769442        4.53165215273901
H            6.37461854630574       -3.39806153660767       -1.15724257408960
H            7.89617998712266       -1.00951797150040       -1.93632601400852
H            8.01963472680091       -2.62153947871355       -2.64127027257682
H           10.02124489519568       -1.46876863149939       -0.99099486934913
H            9.47873305082380       -4.25250782118991       -1.33476215044055
H            9.47361198504839       -3.35566910354278        0.98293858073412
H            8.62533893925134       -1.45276447430988        2.40896582856512
H            8.40131174987322       -0.48389796114292        0.96091229768179
H           10.92589342721060       -1.46866765381405        1.86171361204304
H            7.93989280475185        2.48439286121773       -0.49838979527073
H            3.61888323441339        3.42067428879494        0.82029029826971
H            2.87091349973944        1.90280548539649        0.84613187061068
