45
 energy: -8.594195082271 gnorm: 0.000860571660 xtb: 6.5.0 (97a52f5)
N            1.31333359489362        0.33838083652895        0.10049102065720
C            2.45564450749736        0.15621722192248        0.20118645064313
C            3.84240276341439        0.05393611080649        0.32038295377330
C            4.63055546762002       -1.08356287801410        0.41974341263509
N            4.21265485940622       -2.45000638720975        0.36325812706991
N            4.68945775780027       -3.38948009168645        1.19289523714995
N            4.28900610577800       -4.53102624077084        0.82870797971340
C            3.51133727004352       -4.42058531312995       -0.29322458241249
C            2.94399446187852       -5.53582895189635       -0.93754372786346
C            2.06851497372712       -5.51730961192479       -1.95141308398073
C            1.18147892590221       -4.50229133678521       -2.21337289828134
Cl          -0.89090306687921       -0.37075759223283      -11.36454431466005
C            2.94669324323137       -2.46307787082321       -1.74650165830163
C            3.46002530352232       -3.05655613730656       -0.64472151553580
N            5.95097377729976       -0.69648022893931        0.54811940740651
C            7.06627383946127       -1.64581157715131        0.64832376987472
C            7.66252463970462       -1.97048678059087       -0.73353947155141
C            9.17663072547168       -2.01534028149115       -0.48042849626509
O            9.66253259012160       -3.33478560200584       -0.29986024192868
C            9.37002853494319       -1.16166929513005        0.80208597272992
C            9.79257601855845        0.27584278321820        0.49661387430136
O           10.91925537962029        0.35262105626098       -0.34221092600835
O            8.12234445518177       -1.20652570489237        1.52450297830214
C            6.03815677573809        0.69032615613903        0.49792239861710
N            7.09702003328075        1.50188003614590        0.53276574311663
C            6.77023324781358        2.76738433370531        0.44906813625788
N            5.58142933192769        3.36153216604935        0.33031582140233
C            4.52768550352013        2.55955397194250        0.28462518210388
N            3.24933880395478        3.05658654267042        0.15631457810960
C            4.73565451225734        1.16503198563825        0.36631021458278
H            3.24036760948259       -6.50109661863111       -0.56198409098080
H           -0.05138023681129       -4.93691849975371       -4.35178473349884
H            3.01717642099303       -1.43271467359355       -1.92749945774877
H            6.66552458217586       -2.54448490322559        1.13446390113748
H            7.39199280190476       -1.18555150765728       -1.44590211717634
H            7.30125507906940       -2.92351666106466       -1.13082572215075
H            9.74515307363492       -1.58188080829819       -1.31915236788381
H            9.21120082262735       -3.75995884350749        0.45219227018432
H           10.12109326845846       -1.64753066379647        1.44160070061529
H            9.97225838023651        0.84392435736830        1.41788177115206
H            8.98722324117100        0.78914565279068       -0.03448429236373
H           11.70516583350869       -0.03367635536651        0.08682741055329
H            7.60863522440279        3.45136479287548        0.47927600948272
H            3.05753178454927        4.03696645899793        0.10476823065312
H            2.43647778436949        2.46159695577607        0.12458014455587
