71
 energy: -14.462351871091 gnorm: 0.000605251648 xtb: 6.5.0 (97a52f5)
N           -3.30058722405009       -0.38956859604713        0.43619441869722
C           -2.14491357758775       -0.30913195976396        0.33343395611931
C           -0.75884240891260       -0.20549844133578        0.21557770267784
C           -0.11011774637755        1.03396134706650        0.00989801046949
C           -0.78645926390654        2.31417688591596       -0.14976914172951
C           -2.10366859587650        2.56458921618603       -0.05563211350667
C           -2.72542587224157        3.86486933087186       -0.20247878323914
C           -4.09774872730679        3.99931971555081        0.03139429548140
C           -4.72185379558998        5.21572748597227       -0.08517485229483
C           -4.00550619080231        6.35657050852145       -0.44550561104303
N           -4.65554196848434        7.62518030140440       -0.56019354431989
C           -5.78234602799651        7.94075376023627        0.27382119662061
C           -6.86402272141217        8.65561121973747       -0.23469560550252
C           -7.94041853255982        8.96544044941472        0.56583947627749
C           -7.95613180248782        8.56934894746238        1.88905484748391
C           -6.88958523440373        7.86240503385589        2.40933006043780
C           -5.81227129573775        7.55103838587039        1.61064834434362
C           -4.18192809213447        8.60352566298200       -1.49984471799150
C           -4.15191165438233        9.95443061838014       -1.16257450156095
C           -3.70213115996335       10.89362716481951       -2.06307569863654
C           -3.27654567786963       10.50219978078147       -3.31753826048964
C           -3.30338648480856        9.16648411807313       -3.66847758490551
C           -3.75199369419077        8.22522001754497       -2.76942500101459
C           -2.63804372751687        6.22632361279075       -0.68712633375669
C           -2.01068519526752        5.01089757319808       -0.56798172502502
C            1.28252784692559        1.05198417346611       -0.03885513129422
C            2.05481026418220       -0.09180863539588        0.11553961435181
C            3.51124572452605       -0.00325151227367        0.06457121002120
C            4.40194443145820       -1.03304381404316        0.16922606207802
C            5.76253026962699       -0.62721612293344        0.08307828615996
C            5.91625287483240        0.70476988189826       -0.08760681182136
S            4.38258208875432        1.49735853561578       -0.14626873777130
C            1.40063634826411       -1.29935026729395        0.31525600651342
C            0.01147399543004       -1.38495431151901        0.35585940933502
N           -0.60581859393615       -2.65680286694639        0.53090302246076
C            0.03791192266047       -3.72971974595193        1.32009758713565
C            0.63229900229558       -4.81276234199623        0.41275810099204
C           -0.43348871841064       -5.35689623895501       -0.55368763019381
C           -1.09455132101000       -4.21358691858029       -1.34241379994680
C           -1.65377465628292       -3.14729178412540       -0.39423358897341
H           -0.13743433992058        3.14774134624191       -0.34685730212286
H           -2.77192451930433        1.75437291437151        0.16001909578896
H           -4.66697459438104        3.12975600788863        0.31096863780578
H           -5.77983314204659        5.30110855118988        0.09037693135820
H           -6.84813088638740        8.95654349226400       -1.26758135666463
H           -8.77211287146381        9.51725384401486        0.15925765096186
H           -8.79894641372291        8.81275553724993        2.51505876224948
H           -6.89960325165304        7.55610460498637        3.44259323587196
H           -4.97329322902993        7.01124790684378        2.01364371555182
H           -4.47974768120924       10.25217422962369       -0.18198485874194
H           -3.68155752226998       11.93559004257507       -1.78849019923771
H           -2.92444394139228       11.23811671167846       -4.02173822392041
H           -2.97458509001744        8.86106918883578       -4.64834190880045
H           -3.78555717911338        7.18461010334068       -3.04087685725982
H           -2.07468816192643        7.10241276222566       -0.95656474695092
H           -0.95576227957369        4.94318418856053       -0.76338009859330
H            1.78661881645143        1.98836958100726       -0.19333192423346
H            4.10851208409317       -2.06196127979097        0.30572321331262
H            6.58977592464147       -1.31942201317656        0.14670777143109
H            6.85509923506250        1.21792467200864       -0.17794436924501
H            1.97814411446175       -2.19728428908453        0.41684708695896
H           -0.72220037485555       -4.16193873338754        1.97852952952699
H            0.79211479347113       -3.28868700009227        1.98030340328273
H            1.06965111115724       -5.62379931245870        1.01125077847786
H            1.46279029610584       -4.39094302882398       -0.16510566678941
H           -1.19969670491537       -5.89733531953983        0.01559881409682
H            0.00305151880460       -6.09914097093960       -1.23662545604508
H           -1.88241241068803       -4.59811243235518       -2.00466812075549
H           -0.35088666104295       -3.75171762419371       -2.00301751160046
H           -2.47496415306250       -3.55319551958018        0.20368922347150
H           -2.06288729372769       -2.30036833194621       -0.95322168182373
