94
 energy: -21.837313085085 gnorm: 0.000784478247 xtb: 6.5.0 (97a52f5)
N           -2.30095659425702        2.03604250742303       -0.17960646477050
C           -1.31633637012654        1.42380169384693       -0.10873778084350
C           -0.12749112939890        0.68632116817690       -0.03489003465213
C           -0.15489217656301       -0.71506803208472        0.04319173706867
C           -1.37168668381507       -1.40526690221174        0.11657682438642
N           -2.37937934455884       -1.97835652941886        0.18983229772375
C            1.04687024367319       -1.43605011826845        0.06832012824991
N            1.04034214850862       -2.87236364592213        0.13160724826006
C            1.65825157107941       -3.65430226104288        1.12691192111443
C            2.25111273487567       -3.28883394483249        2.33412553237501
C            2.82536045241925       -4.26410630276516        3.11017657002738
C            2.81398295302106       -5.60297037557453        2.70832278061035
C            2.22276494437715       -5.98230921178976        1.52759916631059
C            1.63362390718256       -5.00116805955302        0.72835180823469
C            0.96544741961745       -5.05701749829910       -0.54848635445163
C            0.69002808083477       -6.11096688899736       -1.42126109348944
C            0.06203827123836       -5.83388201992048       -2.61122625453626
C           -0.29343450240550       -4.52486693867185       -2.94989647973462
C           -0.02766364109921       -3.47808057030607       -2.10289961109275
C            0.60372893659871       -3.74225751075599       -0.88807507188859
C            2.27405013621583       -0.75986655230433        0.03148942231388
N            3.50711214813731       -1.49507871899474        0.05921040609514
C            4.49295317147338       -1.41375587901142        1.06199294744682
C            4.54150005727976       -0.65994844581660        2.23317542820445
C            5.63009628155157       -0.78894754774903        3.05840764860315
C            6.67328913429219       -1.66385136500721        2.74144268332816
C            6.63747974202924       -2.42152592429260        1.59611782458465
C            5.53643083958937       -2.29964381177100        0.74685621570098
C            5.18805099064231       -2.94690534411858       -0.49339361500824
C            5.84169528795483       -3.90300568918442       -1.27257283845663
C            5.24539841354372       -4.32476690964701       -2.43601956830633
C            4.01176292584637       -3.80694618148513       -2.84078315018367
C            3.35924954902931       -2.86558633830218       -2.08540706059555
C            3.94316516378454       -2.43512008258858       -0.89542750800656
C            2.30143699047552        0.63546208510548       -0.01963178018860
N            3.56224386973059        1.32214392484483       -0.04663826720646
C            4.03564797722256        2.24116809260770        0.91066450954563
C            3.47261820308384        2.68611076941435        2.10536942177628
C            4.16117683068418        3.60043974149182        2.86194889700714
C            5.41095001083118        4.07568455698290        2.45443637196099
C            5.98791726539684        3.63693815178154        1.28754346153723
C            5.29776969822014        2.70773431960545        0.50729574058389
C            5.62091770644573        2.04897835841364       -0.73371243608579
C            6.72755669606820        2.12607352945936       -1.58094148217182
C            6.73810245677275        1.36187458098376       -2.72246235473704
C            5.66443968675207        0.52389804956234       -3.03744871309596
C            4.56968697301238        0.43973731780962       -2.21458897327352
C            4.54519303021161        1.20243584144533       -1.04844028433942
C            1.10181477073795        1.35942997202817       -0.05858035514067
N            1.15247091017556        2.79503940958904       -0.12021816735857
C            0.76248079710355        3.67789158368059        0.90725144819375
C            0.12091753218254        3.43611470949783        2.12138163628570
C           -0.09427401779635        4.48900046196086        2.97511320331136
C            0.32198906639699        5.78189096378295        2.64389157655442
C            0.95999746548769        6.03665112297827        1.45424846278235
C            1.18423165853595        4.97634502653875        0.57454876670351
C            1.84661183827240        4.89689406303423       -0.70402456212711
C            2.48196881454975        5.85392399804622       -1.49711447033073
C            3.05817258664083        5.45354551528961       -2.67830082672935
C            3.00990355929453        4.11730424311438       -3.08627378695140
C            2.38789402720982        3.16601868378721       -2.31732008061118
C            1.80649325034377        3.55295503503318       -1.11117923061016
H            2.25961424670063       -2.25546884256397        2.63027412854424
H            3.29612661312264       -3.99392722039568        4.04103065853591
H            3.27608833891960       -6.34762559608458        3.33509835050892
H            2.21111851928548       -7.01021506503085        1.21106290782237
H            0.97457255585467       -7.11422424340987       -1.15762840783751
H           -0.15751832330814       -6.63625889513010       -3.29605435265087
H           -0.78303451174053       -4.33571473637412       -3.89103615088407
H           -0.29609842849089       -2.46789786257176       -2.35538115877809
H            3.73540269399145        0.01152824765595        2.46580221081692
H            5.68261699889975       -0.20705831267353        3.96371942786354
H            7.51620126036194       -1.74606498364643        3.40752010686654
H            7.43334363730205       -3.10126203177176        1.34835899551980
H            6.79306049674596       -4.29295207451833       -0.95685530509314
H            5.73587516340168       -5.06364607618198       -3.04791004151513
H            3.56637838409082       -4.15355071293624       -3.75862024633512
H            2.41098435745942       -2.46086804836200       -2.38839522330672
H            2.51155551764616        2.31433190801566        2.41032873121939
H            3.73195557112360        3.95883934601515        3.78294053524518
H            5.92976926942000        4.79407453701116        3.06734332468006
H            6.95205358518695        3.99291354066580        0.97043034242721
H            7.54817523502299        2.77583184953395       -1.33355915182538
H            7.58518346310552        1.40930840378485       -3.38663605237040
H            5.69808723049999       -0.06509213877372       -3.93907970544011
H            3.74018413277143       -0.20312177925172       -2.44566942264060
H           -0.19456154638665        2.43808890764987        2.36773765215404
H           -0.59103372182298        4.31727393344064        3.91584106520560
H            0.14168176724552        6.58938217298461        3.33413983873720
H            1.29096181703008        7.02706422411277        1.19633256147256
H            2.51796924157066        6.87948733098342       -1.17479152805022
H            3.55615051825525        6.17911990631476       -3.29996887320381
H            3.47151223397372        3.82993180708213       -4.01656531556779
H            2.35029896615025        2.13465862779998       -2.61831333202465
