26
 energy: -6.074613780113 gnorm: 0.000780600257 xtb: 6.5.0 (97a52f5)
N            1.24484583053074       -0.15659290445499       -0.01836913983414
C            2.40432638210949       -0.08560456542233       -0.01883095653876
C            3.80243618662603       -0.04272926911883       -0.01660595939329
C            4.47485166816332        1.15531363511761       -0.01554476415199
C            3.78263134964127        2.37098652150564       -0.01625355365145
N            3.23834934978019        3.39726526896509       -0.01732246620417
C            5.91434088414235        1.17816246964872       -0.01350979445050
C            6.60435622271869        2.40416260899331       -0.01247408225544
C            7.96567061040305        2.44491823866525       -0.01060386404663
Br           8.83019364032648        4.11499504017214       -0.00927284548666
C            8.69873431916181        1.26998628601027       -0.00972976587669
C            8.05669813047687        0.05752906299467       -0.01065739213150
C            6.65424924445293       -0.02459676610240       -0.01254110696585
C            5.94402308512843       -1.28954438304948       -0.01351653838773
C            6.60373106439563       -2.52987543174248       -0.01245862059497
C            5.90252208963866       -3.70911520368932       -0.01357722787657
C            4.51772377566561       -3.69462473353385       -0.01579831283869
Br           3.54185755082422       -5.30217650311148       -0.01743108080346
C            3.84405096657512       -2.51096467506808       -0.01683128532740
C            4.53199958610706       -1.28375971864906       -0.01567344929480
H            6.05100338124254        3.32743241158616       -0.01315876053342
H            9.77544007797027        1.32521533173549       -0.00830980257293
H            8.64669614423160       -0.84042354818775       -0.00998896209432
H            7.67753498751937       -2.56642335675254       -0.01062596127281
H            6.41579576977892       -4.65723335383418       -0.01275404437860
H            2.76759770238935       -2.51870246267758       -0.01847026303724
