26
 energy: -4.397355363609 gnorm: 0.000643639366 xtb: 6.5.0 (97a52f5)
N            0.92605107606755        1.81858403825788       -0.08940954868296
C            2.06388273159607        2.05217129552050       -0.08460651010692
C            3.39323127664042        2.33120600629277       -0.07875633526428
C            4.04290503780373        3.49775799809710       -0.08439078532074
C            3.33278757793929        4.70320899952646       -0.09946100295205
N            2.75165362320736        5.70946305068392       -0.11318950436461
C            5.43868400849170        3.51016114227545       -0.07562376562218
C            6.23716166773838        4.57684649341785       -0.07773684007345
C            7.58214006434193        4.58906514377944       -0.07048071675092
Cl           8.38523078798353        6.15690869194077       -0.07754260119489
C            8.30561475347999        3.43884667737518       -0.05824445238135
Cl           9.91027658390837        3.33359917879827       -0.04838090943349
C            9.03444907038937       -3.06237349106819       -0.25977526858300
C            7.71943237017534       -3.06853950943220       -0.34618855409012
C            6.90552450565427       -4.12558542988578       -0.28683428568801
C            7.25424235824388       -5.40984330333260       -0.13202582397076
C            6.35945376106089       -6.48704331575031       -0.07591824219434
Cl           7.07171457945492       -8.08412675788985        0.12724370975757
C            5.03481263889829       -6.33405865735592       -0.16991259265802
Cl           3.92741237783785       -7.53755553449334       -0.11191967913276
C            0.77402791963963       -6.24496578640410       -0.52784980081742
C            4.21665837075016       -2.93204212184560        1.59989467047835
H            3.60924197514777        7.80262360786920       -0.11668764125933
H           14.40883532935951       -0.53636848456695        0.01496745608426
H            8.30204153602835       -5.64506679863046       -0.04481985916056
H           -0.94711597824647        0.61954686424730       -0.17035111645179
