26
 energy: -6.069611302077 gnorm: 0.000562408879 xtb: 6.5.0 (97a52f5)
N            1.07271627553531       -0.12255646792667        0.01399727682754
C            2.23208197553423       -0.04765923812552        0.01542117225691
C            3.63014116932280       -0.00557169291076        0.01743705243088
C            4.30256285163730        1.19249912800377        0.01851717291724
C            3.60960023762769        2.40763670842744        0.01785319096938
N            3.06845618293367        3.43571249565271        0.01643978019522
C            5.74223535282655        1.21598488291664        0.02040033715802
C            6.43013401504274        2.44001832709053        0.02130057562533
C            7.79588216590962        2.49669148795582        0.02313228550167
Cl           8.60739314069285        4.04927381491152        0.02432528120403
C            8.52143920977081        1.31040283804364        0.02405857610633
C            7.88233155458664        0.09878730074409        0.02317751255911
C            6.48089801676096        0.01342498644415        0.02134120464881
C            5.77045266712913       -1.25192915518528        0.02035923734324
C            6.42685918573710       -2.49307772471409        0.02128510710180
C            5.72486893482675       -3.66938887959311        0.02015181350652
C            4.33427347030892       -3.66723079677457        0.01810872666008
Cl           3.43068635939393       -5.16809648030802        0.01673974455470
C            3.67190350752558       -2.47150253773084        0.01726332068392
C            4.35924832877495       -1.24710862085473        0.01834814786173
H            5.87387779834539        3.36050416650886        0.02053568542742
H            9.59764134664641        1.36441542798824        0.02547581276355
H            8.47420885897334       -0.79835747589403        0.02386726870018
H            7.50095061641425       -2.53165793512764        0.02301264682790
H            6.23901946324481       -4.61638971565541        0.02080916084881
H            2.59632731449832       -2.47543484388674        0.01574190931966
