26
 energy: -6.010026961752 gnorm: 0.000411778338 xtb: 6.5.0 (97a52f5)
N            1.24348782628791       -0.12004084458401        0.06406505359246
C            2.40215428689809       -0.03836342961118        0.06576726881661
C            3.80008218747297        0.00687191327089        0.06775861467273
C            4.47257279765465        1.20515837760448        0.06871104035889
C            3.78224553625964        2.42178027188210        0.06785048708584
N            3.24713161361262        3.45276454523576        0.06733706875349
C            5.91265188576486        1.22884621559329        0.07059484033495
C            6.59793767604227        2.45179269864184        0.07139721317106
C            7.98134372267069        2.54884407075685        0.07314577525932
F            8.66325211234102        3.83102010322024        0.07401656895259
C            8.68577417723796        1.32473305979569        0.07406354056306
C            8.04585497963611        0.11546003319003        0.07333357992594
C            6.64760421348656        0.02765566251248        0.07158150236279
C            5.93737823540139       -1.23738540058667        0.07069839301480
C            6.59012784334202       -2.47704237964604        0.07162529926793
C            5.89057839840590       -3.65283638462783        0.07060127284963
C            4.47868627414039       -3.68847713601958        0.06861446034738
F            3.73878648243806       -4.93807404827552        0.06736265603627
C            3.84152195875582       -2.45671936326993        0.06785846517695
C            4.52926166566854       -1.23509555960671        0.06878759774743
H            6.02686371545790        3.36182932661721        0.07061195023604
H            9.76187345531469        1.36162893139798        0.07535361194285
H            8.63560428968182       -0.78285930277524        0.07407754635501
H            7.66412573321807       -2.51312960848889        0.07320768304801
H            6.41919232760094       -4.59088007054828        0.07125733239911
H            2.76715660520913       -2.44269168167896        0.06642117772888
