36
 energy: -8.618783270896 gnorm: 0.000468997089 xtb: 6.5.0 (97a52f5)
N            7.63785326311226       -5.18867186924743        0.51888175253812
C            7.27845090143717       -4.11351995021585        0.77433257987246
C            6.84828965649964       -2.82550504970371        1.07935011090719
C            5.49543688978139       -2.58981233716079        1.35734230013855
F            4.60613854603985       -3.60040296697669        1.33189931837371
C            5.05592831226207       -1.31915222340166        1.66022032879382
F            3.75011630330183       -1.12524080445840        1.92530699708516
C            5.95543830285509       -0.24573284738533        1.69265798735263
C            5.49789153766610        1.03214420548798        1.99989734783495
N            5.11562520243755        2.09915482851151        2.25617779696745
C            7.30881649529297       -0.46407076262265        1.41632185175227
O            8.18322723781119        0.60607220595810        1.44967051932349
C            9.51770754940471        0.35553717779652        1.17293212317848
C           10.42941695623870        1.40238998017251        1.19631557513864
C           11.77579479525097        1.19541869117951        0.92768725110892
O           12.65155430888763        2.26866194405063        0.96096318499233
C           13.98484318271754        2.01770177233884        0.69601974864108
C           14.89578224146992        3.07821230201594        0.72685316046283
C           14.46344745186429        4.36873907437374        1.01800026889338
N           14.10116008414028        5.44601684336653        1.26004474288192
C           16.25110478079591        2.84034763907268        0.46431927594107
F           17.14025749877596        3.85104742618931        0.49048991564332
C           16.69345168343144        1.56718047324930        0.17533211852963
F           18.00310771173798        1.36963930625494       -0.06748179567642
C           15.79324023374107        0.49444176939395        0.13813206772863
C           16.25391261218800       -0.78574777409788       -0.15489292926150
N           16.63832414160678       -1.85512461005290       -0.39781445725240
C           14.43694115478125        0.71535628561708        0.39755384259266
O           13.56129311463293       -0.35356751356524        0.35638110353772
C           12.22568716855382       -0.10199290401986        0.62664751546671
C           11.31358119099631       -1.14843263580752        0.60102371324873
C            9.96708988039367       -0.94141667025708        0.86893080118017
O            9.09063881052982       -2.01408339582527        0.83277713067628
C            7.75909840449529       -1.76491726337719        1.10828522415429
H           10.08448460420391        2.39721816179850        1.42860402892168
H           11.65854779065877       -2.14325850864904        0.36875749833185
