69
 energy: -13.598065602374 gnorm: 0.000518223696 xtb: 6.5.0 (97a52f5)
C            1.92567945242557        0.38908021854096       -0.54148344491413
C            3.21013331978902        1.02543685349634        0.02334203355186
C            4.40070628760746        0.55942848190044       -0.83825208359947
C            3.11399516515714        2.55989955398346       -0.07032194339641
C            3.37520407017890        0.61439700085216        1.49530924906150
C            4.48491103142285       -0.08306133881015        1.95685625378514
C            4.59809881741807       -0.44901602539784        3.28006037323240
C            3.60050956109954       -0.13450114713201        4.19709647677607
C            3.72285249036428       -0.53836592561755        5.61591606711297
C            4.95468120686340       -0.46178731007950        6.33389042292730
C            4.88436393789028       -0.89176820362221        7.62733179428689
C            5.96881677613094       -0.92305805004131        8.57455992961453
C            7.23644445168283       -0.44554505014569        8.37063197664484
C            8.09523085217349       -0.60015578512483        9.48079598717527
C            7.50882420993818       -1.20573211736973       10.56057748800791
C            8.14012335411391       -1.49019345582384       11.82367998401812
C            9.38555073113032       -1.08816376034973       12.21109956967201
C            9.76276334402261       -1.50634615685733       13.52322108896412
C           11.06458166622033       -1.14812390105078       14.12940272690016
C           11.61701374258712        0.11273949099994       13.93009163922712
C           12.82636501937101        0.45175830334775       14.49482080772940
C           13.53831740425667       -0.45096333019865       15.27349250624204
C           14.87502238317385       -0.02639369464964       15.90266315342864
C           15.83634213588389        0.45120666580602       14.79691872882066
C           14.62127048210040        1.11960875232201       16.89982629816820
C           15.54788006297269       -1.19053879151611       16.65680820794756
C           12.98591954948729       -1.71088325724956       15.46924388208468
C           11.77447036420979       -2.05354320035625       14.91020301151009
C            8.78213275220445       -2.24895261459236       14.14892593745809
C            8.79174300656912       -2.81031118459515       15.41679284156169
N            8.78841397320035       -3.28476886757090       16.47980457045967
S            7.40784978326854       -2.41704486240267       13.10651648682918
S            5.85022288357975       -1.58963952937925       10.18219442096311
S            3.25516469605900       -1.40640531821723        7.97679723926044
C            2.68903924405407       -1.03943779054912        6.38055312774338
C            1.36945420184187       -1.26253292589393        6.01731845196206
N            0.25865546878984       -1.45344508997739        5.72649925790482
C            2.49275534198035        0.56972455491830        3.73884067702972
C            2.38618926382528        0.93605928445138        2.41570415606486
H            1.79462947990219        0.64293909071804       -1.59260959221546
H            1.04337042628625        0.73301932145585       -0.00432906278929
H            1.96614067762057       -0.69633930112170       -0.45872001685979
H            4.26396082768054        0.85545195589603       -1.87768553353548
H            4.50006125054317       -0.52504470240075       -0.81572771906871
H            5.33345801291884        1.00148188396891       -0.49065159681485
H            3.01426379482470        2.88124663439305       -1.10636766822997
H            4.00668346531373        3.02682449397030        0.34370170926159
H            2.25319558385354        2.93715249173984        0.47922290435086
H            5.27273608980129       -0.34922969863936        1.27501195133588
H            5.46029227862558       -0.99893176348044        3.61592452239239
H            5.86038362685350       -0.08776531932622        5.88615236154434
H            7.54983831171565        0.01361356066024        7.44616479004574
H            9.12396737073537       -0.27551841460263        9.47662271776041
H           10.03638873559125       -0.50332982686892       11.58246949774045
H           11.07797215119390        0.83184456564112       13.33794624084924
H           13.22364989194085        1.43893431374753       14.33541752619983
H           15.44124815119707        1.32039178563151       14.27387051528907
H           15.99977410924367       -0.33668283474459       14.06275129000826
H           16.80319432453341        0.72834698570714       15.21516181428060
H           14.18633948859893        1.98563440400304       16.40333624461008
H           15.54923908149059        1.43705063228282       17.37369724765531
H           13.93325653164082        0.80261364589071       17.68268216759773
H           15.74308249798227       -2.02856482468691       15.98885379972006
H           14.92439765039829       -1.53912846900058       17.47904101862738
H           16.50141902058865       -0.87638281699791       17.07957746724211
H           13.50466001299861       -2.43659649807379       16.06954057918063
H           11.36293952359583       -3.03411113983663       15.07359298588010
H            1.71435555250039        0.82701155596265        4.43574594892148
H            1.51710959466377        1.47914781216040        2.08772653680254
