59
 energy: -11.793755149742 gnorm: 0.000627303569 xtb: 6.5.0 (97a52f5)
N            1.31591970815852       -0.13937882491873       -0.28575804560307
C            2.47011368862772       -0.10041345035715       -0.15696509916722
C            3.86254836833365       -0.08490493658343       -0.00443497260318
C            4.56541817730481        1.13985910643677        0.09219409265643
N            3.90119762352765        2.39242388330224        0.12197163068851
C            2.68516272916556        2.64442960426793        0.92650456353699
C            1.59742240322414        3.31036630427702        0.07984879080222
C            2.13267327908611        4.59609734679796       -0.57214289634748
C            3.41180572278863        4.31346429851754       -1.37944068468332
C            4.46492956353954        3.60150163253539       -0.52020172057268
C            5.95525310771705        1.10036730394848        0.12792710178737
C            6.67313434224999       -0.08631403431054        0.12031121080047
C            8.13820515767518       -0.00170119995851        0.03781620844281
C            8.94241261816780        0.72744775384253        0.87107413625455
C           10.31910047615922        0.64743352162905        0.55984253309767
C           10.60376425079818       -0.13543687128837       -0.52590405020981
C           11.92137391094105       -0.41110904353325       -1.08819719928992
C           13.08886325102585        0.10472843912274       -0.52150943152537
C           14.32173734648627       -0.17170297196693       -1.07168914810852
C           14.41841503708231       -0.96670550757131       -2.19659888096585
C           13.27611215745655       -1.48662391799669       -2.77220496317875
C           12.04272241674131       -1.21207622404103       -2.22409936523227
S            9.12107057372154       -0.78662723758747       -1.17296503004381
C            5.96416720483865       -1.31749504092636        0.12483537639290
C            4.56308156576591       -1.29271315526930        0.00347510260800
C            3.81598036146303       -2.59286009909367       -0.14305522863714
C            4.65839313037521       -3.67094245101083       -0.84847966719849
C            6.01726948817057       -3.78346180666855       -0.22373933871240
C            6.63389691944908       -5.01451086159203       -0.07709205666649
C            7.84660854133036       -5.12417923251979        0.57162756819618
C            8.44707384229737       -3.99931427138101        1.09605715654050
C            7.84664084873557       -2.76927869327504        0.95521522460631
C            6.63859584556568       -2.62547548161146        0.27085197449900
H            2.96516815491222        3.29021643967076        1.76456356969814
H            2.34072498513242        1.70482322370596        1.36886694726031
H            0.70221646996852        3.51543951519043        0.68282633131789
H            1.27779599517422        2.61157267839900       -0.70193917081847
H            2.35054732062419        5.33620823984228        0.20763787376872
H            1.36474376882339        5.05728532490218       -1.20893492359831
H            3.81966260812678        5.24290324415878       -1.80026687222220
H            3.16441466493190        3.68185762189279       -2.24126705637758
H            4.84026380952519        4.26510982033056        0.26454796685517
H            5.32837555232406        3.31250173670130       -1.12813212767782
H            6.49992422963276        2.02527603542114        0.16777145420857
H            8.55414601637690        1.30154936961608        1.69819238962730
H           11.07479918053815        1.16271220013210        1.13111621983463
H           13.02462502310684        0.72455397454739        0.35513350825062
H           15.21367821975839        0.23446114828489       -0.62242529764754
H           15.38406613160446       -1.18137761856118       -2.62454407573001
H           13.34966215146955       -2.10681903632964       -3.65080182726904
H           11.15123818673742       -1.61631955083604       -2.67114310432671
H            2.88265078185961       -2.42093880333264       -0.69204409763623
H            3.51818067994325       -2.94279615017865        0.85192951314235
H            4.77238902869632       -3.42407896115904       -1.91037845315518
H            4.15250093907117       -4.64387237477406       -0.81558931139096
H            6.15045946491064       -5.89397623272234       -0.46689701262000
H            8.31626590403438       -6.08817430398748        0.67986003231600
H            9.38702667355079       -4.08320610774327        1.61686178708769
H            8.31391040117517       -1.90048531438716        1.38207084493452
