52
 energy: -10.279194902035 gnorm: 0.000812582248 xtb: 6.5.0 (97a52f5)
N            1.14286577447403       -0.14031259937959        0.12401842411435
C            2.30340117927480       -0.08562129231308        0.11195330094795
C            3.70391191103496       -0.05199541333287        0.09762680382667
C            4.39739003904397        1.17625051148739       -0.01176364806542
N            3.72732115859549        2.42573934688767       -0.03280115202654
C            2.58713281316110        2.75413659192017        0.85081942205988
C            1.40767399148457        3.30094438290473        0.04205033984315
C            1.84754623529784        4.50741886837620       -0.80388683974725
C            3.04899774546470        4.14562010821023       -1.69432396040787
C            4.19679136887101        3.55927316143083       -0.86257262742830
C            5.78330122681907        1.14104159252461       -0.13180257703094
C            6.50705447154865       -0.03825544744785       -0.10274387289851
C            7.97087979839560        0.04101330041159       -0.33313700145229
C            8.78780434200174        0.77660993222984        0.52444160440409
C           10.14963202747463        0.84697538083713        0.30904768893523
C           10.71680776264246        0.19329458216960       -0.76477462077708
Br          12.58483530122206        0.28459787178596       -1.05063498140045
C            9.92172242050960       -0.52883663101108       -1.62947923370533
C            8.55928004413125       -0.60386663100491       -1.42062213423737
C            5.82139194460123       -1.26459066586450        0.08931531158766
C            4.41596590795965       -1.25247737172640        0.13822700354620
C            3.67640539358677       -2.56299804625054        0.20654869869306
C            4.42247515820346       -3.68401855163725       -0.53850755698457
C            5.85811479462911       -3.74888128922212       -0.10862123163232
C            6.50940773085741       -4.96458969441501        0.01335849703160
C            7.80479950697701       -5.02849569918673        0.48300367601529
C            8.45704342711831       -3.87133240479114        0.85167856355358
C            7.82264221520507       -2.65624058343533        0.73318598593430
C            6.52576738902689       -2.55910557904783        0.22592857058551
H            2.92900356300247        3.49765393866760        1.57727471007191
H            2.31030724038241        1.86894009764099        1.43128740332789
H            0.56887942457177        3.56411975663963        0.70079690080341
H            1.03326992435667        2.51043692659574       -0.61854633995841
H            2.12447786609733        5.33521732836880       -0.13975503142262
H            1.01193446248140        4.88378018150285       -1.41013183054441
H            3.38996514873367        5.02072992079074       -2.26451866420437
H            2.73554474312042        3.40773819425006       -2.44266273316446
H            4.62340480096306        4.31751535024777       -0.19930279207060
H            5.00830716177882        3.21557031366653       -1.51162170619544
H            6.31948519353574        2.06571766777930       -0.23762611541199
H            8.34368660045408        1.28155497462752        1.36449689961988
H           10.78364151123487        1.40910744239107        0.97474082691001
H           10.37922375412337       -1.03334576512232       -2.46459141020301
H            7.93593015933098       -1.16974505816182       -2.09059646184430
H            2.66650931823648       -2.44037295708496       -0.20195925938566
H            3.54334381320852       -2.83843926403034        1.25898196531003
H            4.38019517106433       -3.50903737969185       -1.61967712954974
H            3.93921866379402       -4.65404675146985       -0.36875853911094
H            5.98802952584277       -5.86798454854637       -0.25324614121032
H            8.30045233238247       -5.98107151079723        0.57433605803130
H            9.46380122845222       -3.91825475881909        1.23371251552956
H            8.33262531322849       -1.76381183056718        1.04622442138311
