53
 energy: -10.987437706961 gnorm: 0.000262911882 xtb: 6.5.0 (97a52f5)
N            1.14202263442939        0.39501332500769       -0.36414906304263
C            2.29799840223383        0.27990464495874       -0.31126598648698
C            3.68802296035646        0.18124345156585       -0.24396420780841
C            4.37881710404525       -1.05740444052318       -0.25173033962717
N            3.69364642608656       -2.28897691705440       -0.39052420033149
C            2.56719077509392       -2.49349449308693       -1.32720413534934
C            1.34023893520777       -3.04447719090151       -0.59610132160487
C            1.69856375372368       -4.32773781219651        0.17227026704276
C            2.89216616010668       -4.09333560068219        1.11500427220329
C            4.08924261345838       -3.50358257219504        0.35820273416456
C            5.77573542698846       -1.06673030148684       -0.11153948095130
C            6.53908437403038        0.08456499684952        0.02244465429034
C            8.00996840742802        0.00135718106959        0.16602931418654
C            8.65433000220068        0.52307314419650        1.28994938136401
C           10.01796616813217        0.45251383138727        1.41956937056411
C           10.80050558196120       -0.15380459909361        0.43007620861484
O           12.17500866538776       -0.23595229342601        0.52988411224934
C           10.15201590857543       -0.68876614476083       -0.68835092715478
C            8.78867009260903       -0.61529567202806       -0.81542542711339
C            5.85415950985032        1.31658418178034        0.00699672270659
C            4.44568838100260        1.34906732238927       -0.11496122424495
C            4.01734557859136        2.74883517579762       -0.08934574066307
C            2.81049110651832        3.41138310488117       -0.15745805462241
C            2.79985071779455        4.81248282251210       -0.11442287274653
C            3.95813097662579        5.55101025831902       -0.01128854668521
C            5.21668118454504        4.90851082824139        0.05777052214445
C            6.49739076252170        5.50081339500690        0.14999659883439
C            7.62873766253073        4.71565643749177        0.19278773628240
C            7.56988674976008        3.31567786250548        0.15361029538793
C            6.33848595047286        2.69390771325441        0.07442207660778
C            5.19240258063940        3.51236519855844        0.02109537968711
H            2.89746481499148       -3.19401749873843       -2.10042685868484
H            2.34928288920742       -1.55296314839883       -1.84210505288042
H            0.51479444220598       -3.22280685602547       -1.29878253210129
H            0.97550191582537       -2.28739799282335        0.10776420070966
H            1.94936857467648       -5.12156752090374       -0.54171007045819
H            0.82904851384105       -4.69974039904276        0.73186542872932
H            3.17597505641020       -5.02510752786991        1.62313769979734
H            2.59428222789370       -3.40030549232200        1.91094688414746
H            4.49728254319026       -4.22885582316294       -0.35186135434994
H            4.89860298102130       -3.24850887629790        1.04970140384912
H            6.28600441266288       -2.01151496150324       -0.13362362821083
H            8.06003323574307        0.98528730334551        2.05937154725882
H           10.49948173008235        0.86469212600238        2.28802309149404
H           12.47635243771658        0.18210997152823        1.36057661663672
H           10.74992809245714       -1.15758659768758       -1.44938347938028
H            8.30188267301019       -1.02443276510366       -1.68383957838922
H            1.89934492275052        2.84869279654621       -0.24404495834271
H            1.85374000607750        5.32536916343953       -0.16646123286962
H            3.92047414445991        6.62580864700518        0.01540128434097
H            6.57418853189234        6.57342549483645        0.18148819459525
H            8.59333153588124        5.19123256660424        0.25826174036053
H            8.46774876514429        2.72660055222316        0.17924253583375
