62
 energy: -13.299384553913 gnorm: 0.000584879516 xtb: 6.5.0 (97a52f5)
N            1.95386583378575        0.48139029245748        0.61225368086273
C            3.09606766224007        0.35233975257599        0.43599655280189
C            4.46177902212915        0.15595222140194        0.23217729208467
C            5.35741633235925        1.21085699946605       -0.09368917874332
N            4.93250086891583        2.55490322321730       -0.17657173466761
C            3.91137525943748        3.15226838909831        0.71140145839183
C            2.75974956680365        3.74354450155381       -0.10508147842109
C            3.29195820834541        4.76568108390384       -1.12330707781273
C            4.38483244269732        4.14280566074636       -2.00976186412215
C            5.49508750408034        3.50776052924880       -1.16223856243664
C            6.70168067319088        0.90675055607609       -0.34849152305560
C            7.22115648066730       -0.38032749361737       -0.28389076197418
C            8.65480835168750       -0.62793618986984       -0.55934927206550
C            9.02359714950709       -1.47479336477143       -1.60696388159766
C           10.33866818895835       -1.70221661949392       -1.92655957713260
C           11.36674890083216       -1.08661873794033       -1.20787372128888
C           12.74383462400930       -1.29958862775905       -1.51954302228152
C           13.72524555333073       -0.69628422663217       -0.81149503301804
C           13.42061996386937        0.17587014768193        0.27892371121557
C           14.41471620615435        0.80877010854363        1.02735876656618
C           14.08570815383509        1.64127950830336        2.07681752958434
C           12.76697177360738        1.86559074208399        2.41180216661903
C           11.73509973480546        1.25723759386729        1.69447580852384
C           10.35859580360669        1.45901517167786        2.01610037486320
C            9.37849833982153        0.85949052395718        1.30357271885391
C            9.67072976179446        0.00447980904193        0.19790095677111
C           11.02803111180256       -0.22802143423959       -0.13498789601943
C           12.06348753737743        0.40398820940166        0.61389215519412
C            6.32659300092684       -1.41322897670454        0.04421623838178
C            4.97556041567869       -1.14090987699568        0.29460809355954
C            4.30132457508823       -2.40461074090288        0.60170846392817
C            2.97936484512759       -2.68988311616890        0.90801808740646
C            2.61776723488824       -3.99757506740804        1.15769604183359
C            3.55894826653084       -5.01598874328279        1.10398961110654
C            4.87840959252180       -4.74285111860888        0.80041154033162
C            5.24395056849209       -3.43290506214176        0.55054586370426
C            6.55592560006189       -2.85560100786738        0.20665961664963
O            7.59863891227544       -3.46791787006855        0.09159600147338
H            4.39884135542321        3.93332830386424        1.30305513520719
H            3.56573625593538        2.40187368863945        1.42845169633603
H            2.00489110753441        4.19578526419665        0.55248430670516
H            2.24775468627194        2.93256475818194       -0.63610345942896
H            3.70474056684287        5.63025921831829       -0.58960569447700
H            2.47258344020287        5.16307416303033       -1.73818414260934
H            4.80277660508975        4.89229946981704       -2.69586572920165
H            3.93704708759579        3.37268861031542       -2.64936593435505
H            6.05696029344944        4.27317980691242       -0.61881073977993
H            6.21306942001323        2.98316216314948       -1.79998285547845
H            7.37646617306057        1.71052869451087       -0.57605968417257
H            8.24406601393344       -1.96057173650080       -2.16828805092001
H           10.59124756251781       -2.36128362376206       -2.73905798302384
H           12.99088483413846       -1.95541547470989       -2.33625369169912
H           14.75783776001424       -0.86786887056205       -1.06088044174920
H           15.44706063333171        0.63853207978242        0.77550404357143
H           14.86807646214552        2.12031891341643        2.64229521698228
H           12.52058706903906        2.51482279797220        3.23396372294777
H           10.11188883832162        2.09892034477524        2.84536730788879
H            8.34985962309086        1.01649339477966        1.57452675128115
H            2.25708604670485       -1.89535899748312        0.94515024553550
H            1.59297472500307       -4.23016205927736        1.39590052607732
H            3.25724495851185       -6.03160624045452        1.30057473256539
H            5.61920446060502       -5.52168141878799        0.75511657575181
