55
 energy: -11.276884619197 gnorm: 0.000384612586 xtb: 6.5.0 (97a52f5)
N            1.10836559369430       -0.15870726427860       -0.21309859155349
C            2.26387283417015       -0.07971932168231       -0.11078917194617
C            3.65374514198354       -0.02316228501223        0.01339201673603
C            4.37006193816104        1.19767309801780       -0.03337237469376
N            3.70157804108650        2.44792087407776       -0.13084992362681
C            2.50366224693240        2.78456066816913        0.66883855331324
C            1.39371689605559        3.34837515155770       -0.22208745333103
C            1.90915877826121        4.55169325537927       -1.02917140630537
C            3.16875308676629        4.17959111234892       -1.83128396774990
C            4.24587477256329        3.57360724827930       -0.92212491793233
C            5.76816618434413        1.17408636369171        0.01820953562393
C            6.49868025432584       -0.00199059141526        0.14488769896272
C            7.97898502137750        0.02136367371879        0.20313873237145
C            8.66395066138440       -0.52245734848279        1.31417722269834
C           10.02240228208482       -0.51819534862418        1.37421333748561
C           10.79001268560703        0.03375688004858        0.32214304588182
C           12.20186019161906        0.04986869891733        0.34912228400230
C           12.90985442754489        0.59053644946098       -0.68280115376110
C           12.24744880486688        1.14120760481824       -1.78703670915162
C           10.88629562839276        1.14343368456725       -1.84552853419691
C           10.11971223974311        0.59008120833214       -0.79388475902740
C            8.71016187110925        0.57179025720412       -0.82397282686404
C            5.78271379180374       -1.19994724944503        0.20495684995373
C            4.38838352551287       -1.20985308445342        0.13229562731597
C            3.92463838885023       -2.60809724278180        0.17338441756251
C            2.64300252235973       -3.13844505739778        0.13115774380585
C            2.48156691914651       -4.50690512847170        0.18477744690735
C            3.58168946006085       -5.34481736289886        0.27963315492193
C            4.86339790554098       -4.82549055086865        0.32168518995028
C            5.03115812697341       -3.45632238553831        0.26787325827897
C            6.28022181791416       -2.61897557766597        0.29661139425969
H            2.79894581180454        3.52033110425828        1.42328280203123
H            2.17474324574706        1.89850747547946        1.22032798874618
H            0.51205413828622        3.62001943755739        0.37454371558291
H            1.05841557835393        2.56461652515848       -0.91125996584347
H            2.14514939817092        5.37469653936138       -0.34344449414990
H            1.12428739176359        4.93890252541450       -1.69385469575719
H            3.56166076933010        5.05444493268311       -2.36751455425931
H            2.90255480285215        3.45165617078587       -2.60718613589279
H            4.63702409575503        4.32431207940205       -0.22891847138217
H            5.09619729666576        3.21544033318324       -1.51160774886857
H            6.30242428928425        2.10561430638699       -0.00264312794318
H            8.08746626739857       -0.93228566840746        2.12538869321390
H           10.53024448901942       -0.93422088614913        2.22718928291693
H           12.71201431273563       -0.37330166746065        1.19712768380370
H           13.98711473649437        0.59505585771108       -0.65214795114824
H           12.82151211153385        1.56554872752181       -2.59437420382687
H           10.37801663396648        1.56648654394448       -2.69466910974150
H            8.19693753532719        0.98582900011018       -1.67284334276059
H            1.79690190420623       -2.48102565913634        0.05340352082031
H            1.49025633816647       -4.92841624230812        0.15123037490200
H            3.43785174662276       -6.41207325219422        0.32040132313719
H            5.72331257807830       -5.46807567249864        0.39556788699449
H            6.93669829912365       -2.85985098234161       -0.54637983198486
H            6.83919418907764       -2.78461195803837        1.22338464152160
