54
 energy: -11.303717881725 gnorm: 0.000826912765 xtb: 6.5.0 (97a52f5)
N            2.10517462510462       -0.27716590817388       -0.80825579608605
C            3.15960152240266        0.08564886799461       -0.47878169377052
C            4.43756953937092        0.48150882215341       -0.08270138803206
C            4.81048930001227        1.84474105549687        0.06454339612182
N            3.87709732508341        2.89178066518939       -0.10546315689933
C            2.47951314362916        2.82276222673139        0.37592899474235
C            1.50048340243974        3.18776379666210       -0.74183770032642
C            1.83161149390426        4.57760128403486       -1.30934398997939
C            3.29756669070182        4.64690541474571       -1.77199732374158
C            4.25705342336692        4.21367500562047       -0.65524528713303
C            6.13904592663911        2.15698408913725        0.38697735599524
C            7.11838335088627        1.19473030978260        0.59138964072112
C            8.50556139375484        1.59182779945017        0.93039846811688
C            8.77190181101679        2.19212566780053        2.14135570229738
C           10.06312104705357        2.58711885290329        2.48920208162930
C           11.10177594126766        2.39393761918453        1.62840684038325
C           10.88901739214157        1.79533342744336        0.36772908753461
C           11.94593332355254        1.59462843405137       -0.54855542894513
C           11.71466998330500        1.02461940734083       -1.76371495208406
C           10.42218952940420        0.62950230562550       -2.12378285142157
C            9.38178885560196        0.80811874028346       -1.26242146537514
C            9.58179173835588        1.39039161546075        0.00710541659738
C            6.73070914368647       -0.14934190671855        0.47311361800769
C            5.41576619873497       -0.49118239957752        0.13333861447618
C            5.32232360394549       -1.95137675199338        0.07510955776992
C            4.25928430767564       -2.79282142875530       -0.21607093557553
C            4.45842073402160       -4.15737931663158       -0.18229929040013
C            5.70085905455361       -4.68549430594532        0.14003009966805
C            6.76573043196478       -3.85664698987168        0.43393608033954
C            6.57003281387445       -2.48814708889321        0.39964253592994
C            7.50556032967935       -1.38191859788865        0.66850206470778
O            8.67273190155515       -1.49043150573795        0.98787140854412
H            2.38000068451815        3.52161036449467        1.21213056839089
H            2.28142261042241        1.82884194472351        0.78758511036518
H            0.46242524017343        3.14057490212133       -0.38610736071631
H            1.57865843285928        2.44079647366665       -1.54002320437530
H            1.65787316862165        5.33646592166985       -0.53710086892074
H            1.15041702077999        4.83377390189227       -2.13245778440154
H            3.54590089749416        5.65725522800147       -2.12468557647673
H            3.43528926643307        3.98921022347757       -2.63839674365188
H            4.25653638739239        4.94004603541836        0.16275919746511
H            5.28393446706022        4.16107964371505       -1.03041240400036
H            6.41138490247293        3.18776780764374        0.51551730624425
H            7.96034546667288        2.34842133822356        2.83093887008362
H           10.23799649290533        3.04792114461879        3.44756133114747
H           12.09746279044216        2.69904828398427        1.90012550377398
H           12.94014038092788        1.90056573543560       -0.27214294807490
H           12.52940196741013        0.87722516217781       -2.45356650670710
H           10.25168242577712        0.17944261641198       -3.08804811216260
H            8.39027200969322        0.49740410972534       -1.54081658076356
H            3.30094408386665       -2.37502533113497       -0.46394952362324
H            3.63994856179503       -4.82056913796631       -0.40890551446621
H            5.83643979756641       -5.75426057236789        0.16251451302712
H            7.73378366602432       -4.25118500283411        0.68812102402170
