54
 energy: -10.310746243204 gnorm: 0.000965446754 xtb: 6.5.0 (97a52f5)
N            2.77985036390408        0.60371707987198        0.16699115376519
C            3.76872713163003        0.02679871988603       -0.03492993957620
C            4.96600822405095       -0.65005987285354       -0.27586520923750
C            5.03543017952805       -2.06475478036009       -0.37376048650904
N            3.88663366573218       -2.88364435116690       -0.30765637132956
C            2.58629598499285       -2.52258795171058       -0.91448411753900
C            1.45630219618354       -2.63595794538517        0.11155773219453
C            1.42376543315501       -4.04782114909771        0.71936438545907
C            2.79306642556483       -4.42215883221107        1.31296725939402
C            3.91501367779939       -4.24226317042134        0.28189252115719
C            6.29263871671607       -2.65636295337629       -0.53762979458266
C            7.45789138888555       -1.90866574048377       -0.61825186316602
C            8.76875245092976       -2.56855338171199       -0.81316475001795
C            8.89267666734770       -3.56524066631707       -1.75704301666190
C           10.10678225416241       -4.21162812477270       -1.98359860947115
C           11.21442723953220       -3.87313132730595       -1.26704943539037
C           11.15090697230226       -2.86660362737638       -0.27979028876216
C           12.28527968276865       -2.51085175379363        0.48448876567926
C           12.20338237568048       -1.55232302889859        1.44796674161623
C           10.98888084533417       -0.90614963501512        1.69652545519269
C            9.87819535716467       -1.22429006708058        0.97425286515410
C            9.92138736040494       -2.20503977540307       -0.04055016430998
C            7.35096983609889       -0.54876152904055       -0.54209387511827
C            6.15419740924513        0.08257543980474       -0.36891485918335
C            6.23424208277467        1.51343905610935       -0.27665174488314
O            7.24384875148992        2.34979615597154       -0.38634662088134
C            7.25766345989655        3.66354638422923       -0.28959330664736
C            6.30960631282686        4.56744141383013       -0.04948852093607
C            6.39529179230731        5.88544106563638        0.00448506620091
C            7.39494472376682        6.73412272337973       -0.18024647289042
C            8.70425935164168        6.52404808002213       -0.54713151729636
C            9.27622502336346        5.49301180610324       -0.86212232265990
H            2.40893485759395       -3.20338385397813       -1.75275173056429
H            2.64790076519976       -1.51997846933454       -1.34731182797767
H            0.48903855056178       -2.37553746687542       -0.33929582403596
H            1.62412710474362       -1.90104260614081        0.90746791006516
H            1.15371537898891       -4.77267366887044       -0.05802980571903
H            0.63518565462673       -4.12510010983377        1.48054257755869
H            2.78215231597020       -5.45142624750103        1.69702761710846
H            2.99809057758638       -3.78422550639525        2.18103602727167
H            3.81935569995985       -4.97082493186748       -0.52861430169885
H            4.89226444972297       -4.41107811973388        0.74476416527184
H            6.36005250782919       -3.72387236936021       -0.63114468696881
H            8.03137987753019       -3.83493306516917       -2.34341002719106
H           10.16680327280052       -4.98351459761096       -2.73329238245721
H           12.15032691386936       -4.37460229352077       -1.44297470907367
H           13.21826016392127       -3.01352940417008        0.29665673143435
H           13.07486922487513       -1.29097822756660        2.02549105826336
H           10.93346770057032       -0.15319702684944        2.46556886014251
H            8.94836842450392       -0.72651511151264        1.18114206974056
H            1.25288565963852        6.26016224185951        0.69511001772646
H            8.02861791513960       10.88120966837512        1.78067709346602
H           14.09112030033201        6.30913206039006       -0.53502880421026
H           10.42534934781562        4.43782084620165       -1.57813868514047
