55
 energy: -11.279789417539 gnorm: 0.000590174031 xtb: 6.5.0 (97a52f5)
N            2.16133845862957        0.50553874827035        0.73844567298282
C            3.22218957802678        0.16742322817632        0.40596351709247
C            4.50776449299198       -0.21553862266085        0.00700183883386
C            4.85869815187707       -1.56497142958666       -0.26688372933297
N            3.89827631387376       -2.60540869958055       -0.22416152997244
C            2.54149769179535       -2.47164426376213       -0.80100078524715
C            1.47957166357973       -2.99508334828209        0.16927140156387
C            1.78698630184737       -4.44801201058548        0.56701841303922
C            3.20936600699116       -4.57032625322355        1.14091945504582
C            4.25023268051877       -3.98689143638404        0.17586632072105
C            6.18731513859150       -1.87133204161921       -0.58598249228138
C            7.18660490104590       -0.91155997455646       -0.66826167598138
C            8.58057190057155       -1.29590957937975       -0.99935843129141
C            8.90756785391058       -1.67943031837439       -2.28272714963333
C           10.21504340453822       -2.01947580749608       -2.62756056085050
C           11.20956706517147       -1.98484753783193       -1.69512756719433
C           10.93321185165969       -1.61140250919294       -0.36174412481079
C           11.94329212569220       -1.57095428243629        0.62607211021125
C           11.65022465507878       -1.20763256415650        1.90634820251162
C           10.34063231435364       -0.86988870354612        2.26373118694672
C            9.34365433814580       -0.89979347363745        1.33462861772023
C            9.60816122544681       -1.26786476285022       -0.00171344146824
C            6.81991994341135        0.42556411856864       -0.42054751891567
C            5.50313637280735        0.74995800824820       -0.08181545218361
C            5.41405073844557        2.23613384379425        0.14800038985546
C            6.80606379461779        2.74086001130842       -0.11600917606613
C            7.32065718747248        4.02074639097544       -0.07674837502878
C            8.65599406295223        4.21570176872601       -0.38218632611435
C            9.46667565278399        3.14479613235809       -0.72496434233085
C            8.95961904683698        1.86317227709528       -0.76558996429251
C            7.62093868523707        1.65550943050072       -0.45517391661275
H            2.51791465621954       -3.04132753703028       -1.73532634686504
H            2.36283724932223       -1.42866178758778       -1.07815264423958
H            0.47366926244040       -2.90638546847022       -0.26387771889115
H            1.47584637140564       -2.36521757982418        1.06674210927714
H            1.69398392411727       -5.09393804547981       -0.31475770578504
H            1.04283259002786       -4.82144239207553        1.28441362453368
H            3.44473307609492       -5.61722797121210        1.37736536888004
H            3.26277770011233       -4.03220503210252        2.09502967098030
H            4.32732131732939       -4.59799531330833       -0.72839642258495
H            5.24275814915459       -3.98026007414496        0.63809065875231
H            6.44681443254258       -2.89005267371925       -0.80577313831923
H            8.13237888067182       -1.70221529830369       -3.02919150889336
H           10.43921621215959       -2.30783108102367       -3.64153687078442
H           12.21834133782748       -2.24577582941501       -1.96476473519883
H           12.95084126834461       -1.83187479497330        0.35153310596339
H           12.42952635947188       -1.17859534552041        2.65023293514102
H           10.12235683650540       -0.58286473808674        3.27931810854466
H            8.33806527365538       -0.63572669033067        1.61124698965948
H            5.10331184710737        2.45668883869383        1.17473415978272
H            4.69277937897543        2.69681324621765       -0.53529748406441
H            6.68305934234776        4.84662480345260        0.18621253616619
H            9.06885687062867        5.21080352101453       -0.35602350266838
H           10.50396899319581        3.31499321483558       -0.96257275691075
H            9.58374507145472        1.02939768944512       -1.02895899941928
