49
 energy: -9.889432110067 gnorm: 0.000345941883 xtb: 6.5.0 (97a52f5)
N            1.23337911209575       -0.11066869505362        0.18816864872728
C            2.39352132378207       -0.03823555364918        0.16099660385322
C            3.78894513684034        0.01037758690439        0.12908850335703
C            4.50221481427284        1.23078522851511        0.05579973565539
N            3.83214861135020        2.48527770693386        0.05485214341708
C            2.73853076845958        2.81529070179322        0.99434793659630
C            1.52977401575470        3.38859835908725        0.24931083778558
C            1.94591790708658        4.58791355963431       -0.61949914064431
C            3.09557221559259        4.21012325649031       -1.56988135589323
C            4.27632804870934        3.61090377243942       -0.79572711143608
C            5.89837777074937        1.20518442725583       -0.02483423324898
C            6.63351130065185        0.02524121427045       -0.02701543727334
C            8.11425157697698        0.05365365081746       -0.08241416153587
C            8.84433404895617        0.75666079363956        0.87392426652763
C           10.22098156231273        0.78611866727145        0.82717634614629
C           10.89397637497894        0.11739643967562       -0.17574574968483
C           10.18605474891726       -0.57981185483562       -1.13430895147023
C            8.80924553671506       -0.61126817543325       -1.09047639224123
C            5.92199329313913       -1.17431315205131        0.04968041095970
C            4.52717578955255       -1.18010408513988        0.12556984020403
C            4.06441493633205       -2.57679663674090        0.20002195355059
C            2.78228002690430       -3.10348424047646        0.26897183210634
C            2.62181690347876       -4.47178987057555        0.32750712481227
C            3.72331809658416       -5.31324138091668        0.31755154988687
C            5.00546955689281       -4.79769804556273        0.24810136106066
C            5.17214534527521       -3.42860182886450        0.18931856968239
C            6.42095839619775       -2.59526191477207        0.09570917725853
H            3.12326163029481        3.54189672028655        1.71661937021327
H            2.47639612046122        1.92223301163270        1.57000717657989
H            0.73440387530715        3.66922274615352        0.95347938310031
H            1.10122824940152        2.60728645927900       -0.38912551577949
H            2.26717441013650        5.41219093295626        0.02902360417606
H            1.08632009749374        4.97594033263193       -1.18370261975041
H            3.41814153211116        5.08016153265224       -2.15825052766145
H            2.73544068125285        3.47523164532840       -2.29997377215410
H            4.74411632845298        4.36407942953500       -0.15470933379897
H            5.05202054962647        3.25338056959466       -1.48095063771301
H            6.42982780686416        2.13793333910968       -0.06061546036907
H            8.31632297827100        1.27250226743547        1.65743840864740
H           10.77320406886405        1.33148307410126        1.57499019899881
H           11.97087021078429        0.14143839297878       -0.21155294531213
H           10.71137193445006       -1.09855787935159       -1.91950902507965
H            8.25515589997384       -1.13985841379182       -1.84662230963594
H            1.93452910348211       -2.44364108837148        0.27366699026503
H            1.63035754373407       -4.89087708567461        0.38108471106402
H            3.58053678181093       -6.38042472948951        0.36367822604421
H            5.86639198300762       -5.44304940629408        0.23722949346824
H            6.98901332297886       -2.84630673776515       -0.80589899715423
H            7.06878767268115       -2.75577504359574        0.96410927369464
