48
 energy: -9.915443807054 gnorm: 0.000466718368 xtb: 6.5.0 (97a52f5)
N            1.21405107836344       -0.05580680285145        0.08545523691782
C            2.37410065392814        0.01683862646375        0.06339250061073
C            3.76860793882463        0.06562388271698        0.03763502694953
C            4.49534781352634        1.28325359510106       -0.01923449514782
N            3.84882285444605        2.54013014174560        0.00708206318898
C            2.66521737807358        2.83559071251463        0.84428334616161
C            1.50843144590808        3.36183738716129       -0.00931074210704
C            1.95556099639971        4.58285722393614       -0.83057009274320
C            3.20532870783263        4.25680419323896       -1.66688344328059
C            4.32881956452448        3.69451451406321       -0.78678845780975
C            5.89379193505733        1.23731626392199       -0.11304945047611
C            6.61986700683013        0.05564525278624       -0.13884699982412
C            8.09641043302603        0.09755888936858       -0.23134390404805
C            8.83482170349214        0.92343174831465        0.61404725195053
C           10.20691122176717        0.98997009713594        0.51367262986241
C           10.86923719634327        0.23685517684633       -0.43421779289260
C           10.15439800238019       -0.58345911565020       -1.28288468028660
C            8.78233008987669       -0.65040652902439       -1.18535937796744
C            5.89233230323100       -1.14373658954720       -0.06797732349972
C            4.49247731297093       -1.12801533973887        0.01351354052611
C            4.01627942966265       -2.51137580631943        0.06097687774989
C            2.73616023545514       -3.04174480628426        0.11978926080924
C            2.58046991393339       -4.41187430939716        0.14885341365089
C            3.68499348742068       -5.25198647129622        0.11882297148808
C            4.96392340054361       -4.73459068087730        0.05894363702787
C            5.12317123875635       -3.36110211076737        0.02972650822176
C            6.34563831773561       -2.54240342773774       -0.04219587589205
O            7.48394404071196       -2.96608589200459       -0.07018462990148
H            2.95993758154758        3.58176902989982        1.58853042944972
H            2.38508655859710        1.94043950910194        1.40742402083834
H            0.63901817512848        3.60415718473397        0.61702514514022
H            1.17615017783092        2.56720728096143       -0.68750412723032
H            2.17945327313106        5.41490681888931       -0.15217771284051
H            1.13902855215029        4.93875678118302       -1.47376101147483
H            3.54956449604824        5.14346105324228       -2.21663688684102
H            2.94516535339264        3.51535353241281       -2.43186657430551
H            4.70099810717241        4.45642414780940       -0.09560560597595
H            5.17954835491547        3.38031780054065       -1.39948671801284
H            6.43540538564500        2.16419300964083       -0.13817471014748
H            8.31827731837045        1.50623979966583        1.35703401322191
H           10.76436830205784        1.63075864461503        1.17706225075607
H           11.94299282893859        0.28846992641039       -0.51075363941148
H           10.67080131222349       -1.17515425076751       -2.02091116132088
H            8.22258167295856       -1.29765958228258       -1.83832676798617
H            1.88681132560707       -2.38414461978201        0.14000549280293
H            1.59028555861342       -4.83430428967848        0.19487741842982
H            3.54335574117331       -6.31993374571263        0.14170007728422
H            5.82961422347981       -5.37275785469697        0.03286906838148
