49
 energy: -9.891069411525 gnorm: 0.000219923323 xtb: 6.5.0 (97a52f5)
N            1.18045653611280        0.41902179065122       -0.60863079701872
C            2.33283840602130        0.29324648762431       -0.53062959848883
C            3.72383969582818        0.16939493220679       -0.43456214532528
C            4.38559779377965       -1.08539024100115       -0.36554295439735
N            3.67426739248420       -2.30822714343812       -0.45504171983789
C            2.57141047557079       -2.53699532301699       -1.41453917092241
C            1.34280794719087       -3.11546897592539       -0.70762450097277
C            1.71576400525735       -4.39698056639049        0.05590653671555
C            2.87854693955298       -4.13696782829515        1.02944039631576
C            4.07830036032941       -3.51329114465548        0.30448210080399
C            5.77609940549923       -1.11427125060454       -0.19915532380925
C            6.55015754229429        0.03342884995978       -0.11244681765145
C            8.02272997600231       -0.05198247066296        0.05246015498933
C            8.84627998470168       -0.32171704835166       -1.03923552723036
C           10.21490158468338       -0.36769991737966       -0.89120792068627
C           10.78540349424875       -0.14825921466873        0.34697208587623
C            9.98346786020594        0.11348873023454        1.44015233929250
C            8.61430392561267        0.15963467103323        1.29701355487478
C            5.88498039912862        1.27018719697613       -0.19777135580489
C            4.49637188055132        1.32141360688665       -0.35167969482503
C            4.06694319344388        2.76487708827576       -0.39540529718194
C            5.34945357886176        3.54185879897031       -0.27474123500249
C            5.57985993720293        4.90252656697223       -0.27302707350500
C            6.87997287812296        5.36161492478791       -0.15586581288895
C            7.93727271047299        4.47196098000940       -0.04351686456667
C            7.71480982316307        3.11105869939196       -0.04486184266916
C            6.41248320847323        2.63962144734885       -0.15908426029580
H            2.93223423543414       -3.23030973231406       -2.18065994779690
H            2.34162145909335       -1.60271452540506       -1.93538218685831
H            0.52966868157772       -3.30197127704266       -1.42251050664241
H            0.95591877002449       -2.37133924183665       -0.00163846496097
H            2.00918973649937       -5.17416463133212       -0.66038142350095
H            0.84360855271334       -4.80183295008798        0.58798928283170
H            3.17303715965127       -5.06311671511076        1.54204666497645
H            2.54305948784224       -3.45470750071987        1.81987631288630
H            4.52452618300409       -4.22709026555123       -0.39435795620602
H            4.86173124765223       -3.23891765100980        1.01831265082093
H            6.27456238372705       -2.06514658917831       -0.16867345233964
H            8.39605074190357       -0.48416597058766       -2.00340541850501
H           10.84136037656672       -0.57331674573495       -1.74374759209915
H           11.85661537073370       -0.18316039688164        0.46040963678647
H           10.42940301175252        0.28375580381590        2.40643302068641
H            7.98419096277959        0.36958646789476        2.14414951808019
H            3.38705164676451        2.99708116237317        0.43105998727095
H            3.55407339935990        2.99391468593235       -1.33552274272221
H            4.75342103936071        5.58567397284499       -0.36306104124673
H            7.07217716463545        6.42199405665412       -0.15299426103309
H            8.94361949787958        4.84706110963948        0.04614098652349
H            8.52998795624395        2.41639328669945        0.04002967725450
