49
 energy: -6.955994991357 gnorm: 0.001898138918 xtb: 6.5.0 (97a52f5)
N            2.64628112380982       -0.33645015458117        2.75899931705222
C            3.51797511065292       -0.90363731742458        2.24194691468463
C            4.53482936168484       -1.57330589877896        1.63983413886810
C            4.67352641049077       -2.75051080672781        0.95184416739957
N            3.57844130454874       -3.59522576675956        0.67156425889838
C            3.74984852275517       -4.68535471704579       -0.21467266500520
C            3.21259071526254       -4.45804548101047       -1.55189484440465
C            2.60288640347683       -3.04747119728451       -1.68836668060180
C            1.58948164066730       -2.76906217876319       -0.56087060652711
C            2.15859547165613       -3.19786045061123        0.80224141594231
C            5.90431654658077       -3.12689682977345        0.49181980629968
C            7.07258983458094       -2.51647933560794        0.56493379306392
C            7.42292530126708       -1.27848888088231        1.20225830471017
C            7.40256766154576       -0.08785305051511        0.52525578715652
C            7.12916921163451        0.34970140598633       -0.70057352241009
C            6.72868831574639       -0.14240478025092       -1.85462357280907
S            6.38204318397643       -1.64458073424751       -2.18655117505542
C            7.79438295896525       -1.29334878341618        2.48122695610497
C            2.37598322598584        4.20434070235363       -3.99080550964087
C            1.87713789359136        4.68144239283715       -2.90679492002530
C            2.74652388823367        5.49068802759913       -2.10524298564195
C            2.45826062481755        5.52729629553081       -0.71070181885522
C            3.28513327411214        5.70269143985309        0.33708396211213
C            4.65946283087034        5.88268454556759        0.27447274028274
C            5.38986815760917        5.89952099505411       -0.86168835100666
C            6.69542942133619        6.06917168873004       -0.95438929049756
C            7.39127835820787        6.07332090160746       -2.04010295423484
C            4.62022287969418        2.86262987025499       -1.45590700500272
C            5.56831813077744        3.56293549839181        2.75255574003923
H            2.44950086472138       -5.21619572597182       -1.76604252844404
H            4.00803399903125       -4.61200359104057       -2.29268269439714
H            2.13058637935434       -2.92513487008290       -2.67297928613028
H            3.40513097096796       -2.30042817487456       -1.65111386018892
H            0.64604074861687       -3.28972490015435       -0.76704449612221
H            1.33474053848279       -1.70109114369755       -0.54247896334883
H            1.61581304836825       -4.06352237418865        1.19715889278812
H            2.05439380172043       -2.41454899797258        1.55517201338856
H            4.33836453426438       -9.06179041757344       -1.37084833123678
H            3.58612867633489       -4.42749059573323        5.09883921694957
H            5.88799431846517       -6.02411021848628        1.58937166184313
H            8.11193497200918        1.48176912899571        6.17385316431823
H           12.53050801721820        4.47883914194894        4.22023722004292
H           15.20102847410445       -1.90650806041155       -3.48439788878758
H            2.90713039647476        6.47226002214560       -2.52293811642645
H           -3.75819820345943        7.99542981138308        1.77592608551779
H            2.82590878447812        5.70225122643974        1.31267224682225
H            5.19452700312857        6.01927975861533        1.20045043179605
H           13.93336397040051        7.73148016231855        1.34813257190210
H           12.19889096037712        1.10186241116223       -3.02391875798027
