99
 energy: -21.701155849820 gnorm: 0.000749679683 xtb: 6.5.0 (97a52f5)
N           -2.85520504492362        0.06945088817630       -0.41757685248767
C           -1.69732170066017        0.04179937272202       -0.32443066353648
C           -0.30211084710406        0.01915976189265       -0.21932288670528
C            0.41263522883140        1.21098526783494       -0.00905625717212
N           -0.27138767280336        2.48120986702065        0.07058060391869
C           -0.99327607554713        2.83796960017065        1.24418500419576
C           -1.15912244362038        1.91424884127811        2.27375923994539
C           -1.87700437548236        2.22864173730501        3.40305274206498
C           -2.43879296257971        3.48110930898249        3.52852996986234
C           -2.26655627511459        4.41273458482756        2.52543330362232
C           -1.54848241472911        4.11610274414501        1.37851160818016
C           -1.27870283977604        5.21165408724457        0.33628720960992
C           -2.58207723702836        6.00834551858855        0.15589273476196
C           -3.60443050863305        5.48576062879514       -0.62232952957067
C           -4.80587190113211        6.14973443453841       -0.75829163223486
C           -5.01137317669359        7.34434294004590       -0.10136421677079
C           -4.01551534530072        7.86621791340187        0.69675312706888
C           -2.81489524895784        7.19949323266794        0.82860543059108
C           -0.12044209758207        6.10143393551786        0.82284895818259
C            0.13997523071655        7.32613398497585        0.22514195328831
C            1.20120736546981        8.10750613619539        0.63398257841209
C            2.03275205857664        7.67060300565891        1.64295912496631
C            1.80238498964269        6.44772964637082        2.23572105583421
C            0.73979420213457        5.67103461302140        1.82356511199423
C           -0.85054841260977        4.60895478071335       -1.00917963575703
C           -0.91921554433709        5.36501052977282       -2.16821610068154
C           -0.48547940413481        4.86689923424140       -3.37993492130354
C            0.03275972436070        3.59158908163309       -3.45058696041847
C            0.10794170980136        2.82376396566953       -2.31296639180476
C           -0.32954151166521        3.31218524117802       -1.08366293926195
C            1.80094695200445        1.16998733718199        0.09009671833569
C            2.47990339586211       -0.02316963739136       -0.00799636784541
C            1.78749747981271       -1.19543764586848       -0.20962048283730
C            0.39934184143486       -1.19455806475415       -0.32035156240011
N           -0.30382655836448       -2.44515746446061       -0.49218394677944
C           -0.86004205179229       -2.79185481451820       -1.75527023025406
C           -0.83653258144178       -1.87648595922596       -2.80523763118315
C           -1.39189295686313       -2.17852344530064       -4.02578970268819
C           -1.97626889515592       -3.41105176221939       -4.22359159157050
C           -1.98981451428005       -4.33492589000749       -3.19891684778472
C           -1.43838490637583       -4.05024774029609       -1.96031838058445
C           -1.37538171261821       -5.14190932197742       -0.88138592718217
C           -2.74129942391478       -5.85003384415561       -0.86407625334728
C           -3.81226823414216       -5.25940659040720       -0.20944654029688
C           -5.06284378107869       -5.84129673428040       -0.22099848313338
C           -5.26782062437082       -7.02058918779229       -0.90503723378056
C           -4.22114216298308       -7.60874170185197       -1.58298078165866
C           -2.97178130391028       -7.02355729524615       -1.56798335151824
C           -0.22171288823608       -6.10790376791576       -1.20608896630156
C           -0.14425158792429       -7.36043710233693       -0.61414124052531
C            0.91459743403734       -8.20657481729580       -0.87272259527782
C            1.92695820533692       -7.80810842902352       -1.71936753207349
C            1.87963482783680       -6.55849542759743       -2.29913546429479
C            0.81865991901212       -5.71698657017949       -2.03760175065218
C           -1.08689702140571       -4.54863329653483        0.50471194852276
C           -1.32027066816068       -5.29961333756337        1.64543022874895
C           -1.02616322418028       -4.81181887526411        2.90237521366660
C           -0.48453719866960       -3.55173101037909        3.03840684154713
C           -0.24477937079314       -2.79009623977237        1.91962639525166
C           -0.53862808564547       -3.26873117088511        0.64447806047596
H           -0.72623819915613        0.93558984774434        2.16917815704566
H           -2.00321381905510        1.49773816393251        4.18509350008693
H           -3.00376621722164        3.73463603138404        4.41061915884105
H           -2.68625040165244        5.39661595683720        2.63773515991664
H           -3.45037070357592        4.54412696996111       -1.12061560944735
H           -5.58523083904484        5.73215710240132       -1.37463813465729
H           -5.94949223953698        7.86467741379031       -0.20577816765992
H           -4.17631379330848        8.79401373807366        1.22114853813116
H           -2.05069346634937        7.60027096604051        1.47124178899101
H           -0.50359358656158        7.67442899598357       -0.56325314117926
H            1.38086063954192        9.06015529004329        0.16295579866119
H            2.86166980574624        8.28024494833016        1.96386964835601
H            2.45387107953077        6.09713197983182        3.01954038917179
H            0.57558408790256        4.71116605055526        2.27974817400547
H           -1.32914591824261        6.35856249231339       -2.12091121598404
H           -0.55011438748821        5.47407154247961       -4.26803595944748
H            0.37410965204969        3.19707264133182       -4.39374427347362
H            0.50193158514724        1.82440116762511       -2.36459542546663
H            2.33377804422700        2.09178315650762        0.24503675470361
H            3.55434116376704       -0.03961916656969        0.07381561989317
H            2.30936989079396       -2.13355797907182       -0.28193448153696
H           -0.38572895317312       -0.91347955401949       -2.64537519524777
H           -1.37351249029331       -1.45359478362609       -4.82319550681914
H           -2.41411083398977       -3.65525073255795       -5.17765415632124
H           -2.42650862899700       -5.30368783270443       -3.36457531135427
H           -3.65665576152521       -4.32962767127581        0.30997817117925
H           -5.88010227943677       -5.37170622431415        0.30171197459796
H           -6.24412158719110       -7.47717206736651       -0.91535762905167
H           -4.37989313346486       -8.52480475285418       -2.12821584538676
H           -2.16559660359341       -7.47545992456704       -2.11895446709788
H           -0.92813762756128       -7.67846281091482        0.05038004656594
H            0.95070314657067       -9.17992217212657       -0.41122841408035
H            2.75431859282620       -8.46832480009601       -1.92269539657873
H            2.67305543403469       -6.23746669595441       -2.95422055497119
H            0.79731611031092       -4.73601054633022       -2.47786668985863
H           -1.74968348557982       -6.28092492039507        1.54595601285626
H           -1.21863103283787       -5.41468851118889        3.77476028742127
H           -0.25234996427227       -3.16466962780821        4.01716989660641
H            0.16964894853000       -1.80294875871331        2.02119318725345
