25
 energy: -5.666227651875 gnorm: 0.000428755508 xtb: 6.5.0 (97a52f5)
N            1.21554177778320       -0.08425794469825       -0.06567986880750
C            2.37886054635740       -0.08466961518634       -0.06488666686103
C            3.77254315581070       -0.08257084065979       -0.06476227431557
C            4.47891408633539        1.13876294124413       -0.06464563151978
C            3.80997305803875        2.38945333183166       -0.06468047291645
C            4.50381537026176        3.55672944477319       -0.06403168383160
C            5.90901554993205        3.55090331668979       -0.06331342058749
C            6.59278297581269        2.37808233298417       -0.06343529354274
C            5.90498987638119        1.13497803034368       -0.06421565092073
C            6.58906160068294       -0.07769292123351       -0.06415515070714
C            5.90920553861709       -1.29273198995873       -0.06426451371888
C            6.60134919457785       -2.53343372191589       -0.06401545626878
C            5.92164742658511       -3.70861281885470       -0.06401005964928
C            4.51647219848755       -3.71929847198918       -0.06425115819847
C            3.81854707386070       -2.55444808790209       -0.06449917780180
C            4.48314459759144       -1.30145218363031       -0.06452232269650
H            2.73450775165523        2.39835941399450       -0.06527935675682
H            3.97738422165728        4.49697805807966       -0.06399836577073
H            6.44379352215028        4.48640383270459       -0.06261770192038
H            7.66899491521966        2.37620977925261       -0.06286421017269
H            7.66375841708897       -0.07581773527231       -0.06387217877367
H            7.67754920671711       -2.52783245566249       -0.06379928306823
H            6.45969063257332       -4.64223894676882       -0.06380281542862
H            3.99334326075766       -4.66139101366655       -0.06420002157036
H            2.74310404506467       -2.56713173449904       -0.06466726419478
