30
 energy: -7.281180198386 gnorm: 0.000865443883 xtb: 6.5.0 (97a52f5)
N            0.64067220384532        0.59424759617593       -0.11294723661622
C            1.78542131916798        0.39086689847989       -0.06300981110373
C            3.14762789394775        0.15000170257329       -0.00438076819061
C            3.70118344538734       -1.14207301301005        0.04663274210279
N            3.06887257585839       -2.34051052411682        0.05154302440101
C            4.02490047381748       -3.26460215817578        0.11409891252881
C            3.88670162502417       -4.66841747853497        0.15615945452587
C            5.00714615870420       -5.43389913206514        0.22888753218619
C            6.28959692654928       -4.84346107456982        0.26426286193117
C            6.42898076806021       -3.49674389775693        0.22703309469662
N            5.30462353969636       -2.69812814281590        0.15189713182048
C            5.11795820086972       -1.31944776616854        0.10790152554545
N            6.04353602516786       -0.36167238769429        0.12495113839340
C            5.50372814143902        0.85523553681209        0.07712983953549
C            4.11195099319101        1.17388429183921        0.01392860008607
N            3.93000468183121        2.51624597543660       -0.01666878925544
C            5.14551240540914        3.05700114186247        0.02440389685857
C            5.49795228382715        4.42350586472353        0.02163134717989
C            6.81383120894478        4.75953318362386        0.06754794132712
C            7.81606766958320        3.76581029832018        0.11794481382462
C            7.48423438701826        2.45269621107010        0.12387538691407
N            6.15309678855426        2.08660194436919        0.08142074956218
H            2.90379619372737       -5.10425413452141        0.13046883865223
H            4.92011720502906       -6.50778443341540        0.26121268849156
H            7.16188560932021       -5.47345009962054        0.32266783471607
H            7.39294632543849       -3.02011591548139        0.25466119987716
H            4.72414610227261        5.16941844748423       -0.01718184374690
H            7.10090080205775        5.79848657396937        0.06558359784581
H            8.85239333836631        4.05917589782374        0.15197798791263
H            8.22674470789414        1.67532859338327        0.16230630799766
