30
 energy: -6.532266238543 gnorm: 0.000720579524 xtb: 6.5.0 (97a52f5)
N           -0.18244530958029        0.71156956179942        0.03184835747321
C            0.97985036736922        0.70189818606237       -0.02659843969287
C            2.32609136431825        0.70476007228947       -0.09194872379074
C            3.19498373580045        1.76261963113081       -0.10972449873829
N            2.75105588944579        3.04508117395394       -0.06849714163962
C            3.81843975817264        3.82776072341156       -0.11317290733226
C            3.88058006748587        5.23728280277914       -0.09679463430835
C            5.09854739580547        5.83668590461579       -0.15316330550701
C            6.27994090062557        5.06750375878635       -0.22761165874566
C            6.21967223660380        3.71440344527359       -0.24398702198777
N            4.99180880930717        3.08225220234963       -0.18671548757469
C            4.63661408737739        1.73463232089946       -0.18286393105831
N            5.59679138485789        0.80372207705672       -0.23946799349686
C            5.30694060737404       -0.50284144877121       -0.18268196402378
N            6.35311385098853       -1.41918080381558       -0.21351464245422
C            5.91779322193034       -2.58348757695087       -0.13464958041450
C            6.61287126031614       -3.68209924220335       -0.13729427587066
C            5.80288947412251       -4.74029251919631       -0.03552179858794
C            4.50735800217075       -4.56135611055822        0.04910846700724
C            3.70774093250878       -3.43865609464058        0.06032289828286
N            3.39970887667395       -2.15131807857945        0.02797335430680
C            4.06279726465841       -1.05661836603568       -0.06929664228561
H            2.97045502393488        5.80727347374391       -0.03985267108355
H            5.16771287152313        6.91212705393926       -0.14143812453869
H            7.23492364275270        5.56445041146475       -0.27149637254230
H            7.10393524202849        3.10476723787404       -0.29966634686814
H           12.19120449535821       -5.96137717360642       -0.44634158031928
H            3.97504200857548      -10.36431956200713        0.03027594208589
H           -0.62546809918571       -5.42340031135827        0.18526688022762
H            2.38535063675287       -1.98778274966106        0.09835384360026
