34
 energy: -7.921121632871 gnorm: 0.000909776927 xtb: 6.5.0 (97a52f5)
N            1.27340352425880       -0.14723506649419       -0.30821869794485
C            2.43017339872599       -0.09733933125125       -0.21615504742547
C            3.81685231421319       -0.03658249033130       -0.10894147833146
C            4.45662523817698        1.21020670774677       -0.05097639820436
O            3.68529539524958        2.36706784903211       -0.09903045137714
C            4.34902717695842        3.58482278292078       -0.06840004201528
C            3.62599968171529        4.76383219492442       -0.13759954637492
C            4.26464871408281        5.99081909110159       -0.11576809815483
C            5.63504249781928        6.05063893273940       -0.02239446388894
C            6.37522520010013        4.88399333406279        0.05038918027399
C            5.75459829343347        3.64632465783823        0.03014502697495
O            6.51892736727593        2.49147793453203        0.10630341650415
C            5.85316497412670        1.27119038476633        0.05270347372184
C            6.59969446918339        0.08470534525876        0.10213389222272
C            7.98632714256602        0.14548743306106        0.20982885157768
N            9.14307136353669        0.19654967510889        0.30225937457437
C            5.96021460711353       -1.16223090935516        0.04264658416094
O            6.73028849139833       -2.32003179091920        0.08875549699754
C            6.06826119408889       -3.53714849728953        0.02429641567605
C            6.79282130051264       -4.71662834117990        0.06219174332247
C            6.15582086815413       -5.94324409288170        0.00169564517729
C            4.78572683488311       -6.00212739419209       -0.09756288988002
C            4.04397583772616       -4.83505243632002       -0.13736613084065
C            4.66300471266221       -3.59778233840485       -0.07901355099142
O            3.89698740583302       -2.44220302732529       -0.12366536141617
C            4.56385570030419       -1.22279489173259       -0.06294358882311
H            2.55396033985488        4.70091689127868       -0.21080093627443
H            3.68656166434883        6.89925222751967       -0.17292551910746
H            6.13445660578649        7.00593544294452       -0.00703712822512
H            7.44860574885114        4.91492970767085        0.12490789994554
H            7.86451780956716       -4.65440994574589        0.14036751520646
H            6.73503115873261       -6.85206370948279        0.03269057774649
H            4.28761844048481       -6.95722419439191       -0.14445865912723
H            2.97078452827512       -4.86530213520941       -0.21559710567946
