17
 energy: -3.900457207825 gnorm: 0.000688704015 xtb: 6.5.0 (97a52f5)
N           -3.45227723198620        1.04723129987576        0.02300622417335
C           -2.46557503437943        0.43644692058836        0.01675897325894
C           -1.27199702706763       -0.29788663784533        0.00939792892659
C           -1.14273750516214       -1.67106360254891       -0.00125753493498
N            0.18392063852053       -2.01485239090820       -0.00744152487553
C            0.94574328359805       -0.85833514108445       -0.00258442171600
C            2.32954454979971       -0.64582868457063       -0.01284528475370
C            2.79307673798637        0.64209405113681       -0.01106095341482
C            1.90973984028246        1.73322590565720        0.00004571584935
C            0.55457667474667        1.54575027504069        0.00861915371320
C            0.05678879146274        0.23327321167284        0.00689374661110
H           -1.96288799156114       -2.37153470885875       -0.00777386687427
H            0.56554724994381       -2.96013897267260       -0.01153973339027
H            3.00098951866221       -1.48568332458051       -0.02231884156155
H            3.85520895507634        0.82399887845954       -0.01873245416844
H            2.30732668514589        2.73477250157623        0.00135876474987
H           -0.12844813506815        2.37656041906191        0.01576410840727
