97
 energy: -17.668222111542 gnorm: 0.000325947178 xtb: 6.5.0 (97a52f5)
C           -0.20593860838980       -0.92595944613811        0.61575348150482
C            1.17681638299519       -1.12930040265830        1.26589916281093
C            1.96414267010648        0.19010037964360        1.15425451257978
C            0.96731785606618       -1.48626243041495        2.74959238146113
C            1.97320928797363       -2.24762094374337        0.57541420988283
C            1.49973788986123       -2.92003051964970       -0.54433726378553
C            2.26455197861638       -3.87353916789995       -1.17815650992199
C            3.53665617498144       -4.19551828704800       -0.71662310380679
C            4.39202503666335       -5.16126301081753       -1.43908579510103
C            5.28271421548887       -6.06197324176453       -0.78642660231302
C            6.00758780909449       -6.85541381796929       -1.63136038875893
C            6.98074365906664       -7.84622598459836       -1.24709870192458
C            7.19697441604131       -8.32504874407368        0.01808846705363
C            8.21176979562805       -9.30397030577715        0.09766846116608
C            8.80776892155622       -9.58983849343829       -1.10228554028542
C            9.87223454193425      -10.53629138845826       -1.32270981958272
C           10.29597104751575      -11.49356760421469       -0.44370655079053
C           11.37243033385862      -12.29704008040575       -0.91846481404400
C           11.97277331632812      -13.39876309315523       -0.13613081480249
C           13.33907941230784      -13.65381138732086       -0.18559183492691
C           13.88253298825443      -14.72644650162452        0.48396595801385
C           13.08803921487835      -15.59061437495553        1.22542204932855
C           13.72360998698473      -16.81567503671143        1.90079954639239
C           14.39970867818369      -17.69044118448894        0.82700910949083
C           14.77248153921029      -16.34730890900198        2.92630990472997
C           12.67363799681685      -17.67440778141344        2.63316256038317
C           11.72714258356445      -15.31850196326875        1.29667944626898
C           11.17867492076822      -14.24369664258546        0.63204512327170
C           11.77837833449727      -11.94127005022548       -2.18880584084671
C           12.87008321223329      -12.56557905707600       -2.96484366971327
O           13.88777858713298      -11.93095791642729       -3.21852877097423
N           12.73176920426656      -13.89336427588718       -3.38871206822122
C           11.50745528608745      -14.68830247177491       -3.20401250009193
C           11.85585804730801      -16.00816849737802       -2.51291146766030
O           12.92157356349077      -16.68837189949615       -3.17338258957100
C           14.10695116289189      -15.90137371579494       -3.27164391907170
C           13.84789457027235      -14.59288102501718       -4.01957211808673
S           10.82342161923975      -10.61971286787639       -2.77936701140015
S            8.07795619684601       -8.62400528316030       -2.35763202567612
S            5.57918992581988       -6.49561826279422       -3.28044852893698
C            4.43860757394396       -5.27590358193075       -2.81381805048489
C            3.64736222576994       -4.49465084599376       -3.78760886366180
O            2.76389603324062       -5.03641831642920       -4.44239992180809
N            3.91529308523031       -3.12873842335797       -3.93944435159612
C            4.98103994380764       -2.42021033680413       -3.21433087819671
C            4.37803943397336       -1.23170061789451       -2.46339169171271
O            3.59320968419636       -0.40728133005389       -3.32281007192438
C            2.53508236841801       -1.11906049390744       -3.96195535836971
C            3.06637697131192       -2.29355154501582       -4.78501157658791
C            4.00261322968831       -3.54114891558387        0.41867393121443
C            3.23508248350697       -2.58563777700479        1.04674483441500
H           -0.75851853027690       -0.13634298367152        1.12363068365718
H           -0.80314526440648       -1.83512798694975        0.67203158645765
H           -0.10893284402781       -0.63759320649678       -0.43014047057460
H            1.41987042036605        1.00995276133965        1.62123443336496
H            2.13391402091650        0.44873335655540        0.10970659620961
H            2.93482138252173        0.11374216621258        1.64150949337073
H            0.39100058166225       -0.71414918107896        3.25789166525783
H            1.91712167541588       -1.58831930176707        3.27165691524642
H            0.42840824073961       -2.42791318055380        2.84610472544947
H            0.52694669508116       -2.68717610396268       -0.93856565894055
H            1.89190380886228       -4.36526926065297       -2.05980651557519
H            5.37450811744034       -6.10883700559982        0.28605436290649
H            6.63179413235730       -7.99340496008736        0.87512048870645
H            8.50213772370419       -9.77608158095937        1.02329601042278
H            9.85515534841717      -11.63391602757918        0.52935541238849
H           13.96752812644796      -13.01262540648467       -0.77884101100419
H           14.94088704483806      -14.90820902421145        0.41747406777008
H           15.19557537687495      -17.14950071531452        0.31792354011584
H           13.67629911388794      -18.00483860078518        0.07565766608172
H           14.83642029733643      -18.58436913980560        1.27042928124617
H           15.56777331687633      -15.77855553717375        2.44737612478273
H           15.22882704652653      -17.19723304289485        3.43222149975613
H           14.31383391921269      -15.71101178558562        3.68210145971122
H           11.91416402815825      -18.03805088096670        1.94208593494458
H           12.18261236102897      -17.10617568073578        3.42207432680306
H           13.14040501790101      -18.54333058021276        3.09559913355777
H           11.08122106746540      -15.96106444496978        1.86750971563836
H           10.11820429803569      -14.06577471710297        0.67676418054291
H           11.06965318940114      -14.87698354644581       -4.18869278045083
H           10.76964540968797      -14.11583765310909       -2.63363298603788
H           10.99650736802369      -16.69021882478323       -2.48375445025218
H           12.16490382960718      -15.83803218060075       -1.47642172560609
H           14.87161091947748      -16.51173671641116       -3.76890115822390
H           14.46152176988960      -15.70404120696956       -2.25375209228498
H           13.59312593080379      -14.78818390309287       -5.06551852651246
H           14.72672169313905      -13.93849274383194       -4.01402039185729
H            5.72084716961071       -2.07548553424169       -3.94287704506926
H            5.49839784437488       -3.10705663409428       -2.53751751909563
H            5.15351060379250       -0.59877549776582       -2.01340016809705
H            3.72927100250535       -1.57157246460205       -1.64934774470968
H            1.98186197666322       -0.40341410036837       -4.58353993171162
H            1.84925482465841       -1.46864676979823       -3.18202757617244
H            3.65887798747926       -1.93662618675425       -5.63279685107208
H            2.25468271295087       -2.90817555396367       -5.18995775540208
H            4.98855533006924       -3.76775244849961        0.78565129514863
H            3.62863712469539       -2.07798811268858        1.90985763393154
