23
 energy: -5.035275085923 gnorm: 0.000903844730 xtb: 6.5.0 (97a52f5)
N            1.27902129544494        0.02835955423636        0.46668565957254
C            2.42972987237210        0.04035198298147        0.31565436810830
C            3.81746759405574        0.07472848452581        0.13253102209745
C            4.50258888883121        1.26675282457004        0.17673083652518
C            5.87239250422284        1.26695906018115       -0.01657468286367
C            6.65648302001537        2.51981770013959        0.01097087726697
C            6.41564180791520        3.49438705307681        0.97783069311911
C            7.14575891138784        4.66002906379756        0.99938499951902
C            8.13203165311476        4.88868563976365        0.05650385480207
F            8.83688572844324        6.04514848821491        0.06771568607029
C            8.38115610209297        3.92800766439609       -0.90712436731804
C            7.65491008883106        2.76013418764882       -0.93181678753899
C            6.48237379571751        0.03455296056380       -0.24333980698243
N            5.87120748224107       -1.12550824846258       -0.29335842485426
C            4.54248932134477       -1.11141765533435       -0.10825872922746
O            3.86616072989066       -2.30065088803466       -0.15746282982857
H            3.97206799307384        2.18774974780364        0.34218908240388
H            5.65963408292774        3.31892380592470        1.72414672029717
H            6.96290585520966        5.41305031248452        1.74653773073629
H            9.14949520016821        4.11714714019886       -1.63693472391578
H            7.84286634022522        2.02664115760762       -1.69737811026404
H            7.55244003185674        0.01028291432263       -0.37819719187868
H            4.49878170061867       -3.02043295061084       -0.33316587584700
