54
 energy: -11.992888298527 gnorm: 0.000650580727 xtb: 6.5.0 (97a52f5)
N           -1.45961483834336        0.60033430381698        4.54312395882486
C           -0.71419171461599        0.42240435661277        3.67044514422263
C            0.19223793893234        0.21115384984803        2.62027159996446
C            0.79212789288540        1.28582175428692        1.97980090109845
C            1.69645883873348        1.10888369886686        0.94115962288659
C            2.33251871889690        2.28653471559270        0.31504013838916
C            1.59551625319495        3.44307076476581        0.05602937636464
C            2.18645845335425        4.54201047429046       -0.52679101991743
C            3.52539412605877        4.51358842580827       -0.86196051798287
C            4.27261711063054        3.38032059965711       -0.61192349127552
C            3.68385185051153        2.28124411598619       -0.02948283555030
C            2.00653879491484       -0.20811537201348        0.51766299395501
N            2.93562121842375       -0.42990391514601       -0.55901162007101
C            4.19496009801672       -1.05402581161621       -0.32013297628355
C            4.60256885818475       -1.37355715134534        0.96522411905490
C            5.81865894509160       -1.98372717802960        1.19574463069828
C            6.65154169078820       -2.27650261195089        0.13778777129197
C            6.27275524426247       -1.95160391079437       -1.14784832437631
C            5.05295426699569       -1.33454991586422       -1.40135061245101
O            4.72267925068420       -1.00622213310834       -2.71447485701463
C            3.49885649821582       -0.38100068047261       -2.94412005009204
C            3.14728694298063       -0.05019086638698       -4.24799852605495
C            1.93696401381996        0.54852576314032       -4.52791621302902
C            1.05252715037106        0.82329851744195       -3.50768372597822
C            1.38327650485532        0.50438145361478       -2.20640842789522
C            2.59978386296673       -0.08476162115477       -1.90101043235724
C            1.39459920850749       -1.31072309890037        1.16524266851892
C            1.67668398875393       -2.69829700431046        0.74048747814295
C            1.90667364342875       -3.70068207924501        1.68358572354193
C            2.18302779157444       -4.99066483856883        1.28878108777236
C            2.23250478422330       -5.31004891908859       -0.05355960166126
C            2.00315382092789       -4.33362826540631       -1.00192372028013
C            1.72657635779365       -3.04397890090000       -0.60969197345563
C            0.50585906550002       -1.07488577370748        2.20515608680168
H            0.56325360139599        2.28102709495895        2.31562677578212
H            0.54808275688925        3.46315070982556        0.30199962849504
H            1.60207039654614        5.42601597878909       -0.72330345059870
H            3.98624819085792        5.37393723902398       -1.31896103282344
H            5.31713025162902        3.35434331944726       -0.87611876188520
H            4.26290366193168        1.39476649388587        0.15598092340836
H            3.95223282758228       -1.14357939331566        1.79014900365934
H            6.11442251295630       -2.23272406024097        2.20149818719778
H            7.60042034018346       -2.75562628374615        0.31481887415203
H            6.91859735070674       -2.16719215991252       -1.98033487505179
H            3.84158310999389       -0.27788712268766       -5.03712601382384
H            1.68174610102479        0.79680511388616       -5.54501091532657
H            0.10448048522685        1.28724957082656       -3.72444008089437
H            0.69207898347857        0.71531413512125       -1.41040024665925
H            1.88448088506607       -3.44963898582490        2.72985394682397
H            2.36436352535183       -5.75224099675712        2.02946242861611
H            2.45207178376614       -6.31944992841141       -0.36053612365900
H            2.04588836558101       -4.57943987456232       -2.05035138275987
H            1.55790361260163       -2.28002199773733       -1.34726812512627
H            0.03143462570136       -1.90786159827949        2.69171686465525
