54
 energy: -6.951080939127 gnorm: 0.096661671737 xtb: 6.5.0 (97a52f5)
N           -2.34063065560547        3.11148962652338        0.16932522027126
C           -1.19768048543162        2.92554505487093        0.18322839184048
C            0.14505194283278        2.69149254483241        0.19040970747535
C            0.79296467492786        1.51193119535054        0.23890345418842
C            2.13899811492686        1.37047877955593        0.19496514701299
N            3.12635646215079        2.30333130850847        0.07999379330224
C            3.64198535668306        3.06838827841173        1.01106145328094
C            3.30579050587709        3.21688965266797        2.28453995823442
C            3.86344653163325        3.97876048563405        3.21733497126224
C            4.92240511792490        4.77760146436551        3.16887646310008
C            5.66823466609145        5.08140868839558        2.17163797931697
C            8.35509304085222        2.51604192281773       -0.52970668526753
C            7.49817267237584        2.32790698471099       -1.46976396541719
C            7.84221387857595        2.19036403879295       -2.74954064516803
C            7.09103824038773        1.73125815912523       -3.73085561776030
C            5.92025744446913        1.10659709425452       -3.71724548500945
C            5.22393696569414        0.55222245630574       -2.73610850070288
C            5.54516900242213        0.37831348051743       -1.50912307569298
C            2.37360931721244       -1.88013790203412        2.19244552987140
N            3.25356151719746       -2.82219417054657        2.10952974880337
C            4.56522799364897       -2.39363669046957        2.21775123631750
C            4.91709617089976       -1.10337389660719        2.48919626779031
C            6.18706535566201       -0.75067139832490        2.57785582623580
C            7.14642911110200       -1.64297917422245        2.39795429803284
C            6.84714620004165       -2.90535671972278        2.14123563569083
C            5.59092624295825       -3.29640658037999        2.04418208827637
C            6.76742859812691       -4.40593067373672       -1.64988797087848
C            7.39868994219156       -5.39594369974032       -2.29850440738561
C            7.01402162413064       -5.99630492506231       -3.40716695752506
Br           7.97556246739367       -7.28659555231930       -4.12227431956107
C            0.96034539264373       -2.20992853831795       -3.81208384640723
C            1.12025589545946       -1.53532349424835       -2.73170753343328
C            2.09101078312338       -1.66427330295427       -1.86463995128005
C           -0.47110837921079       -4.39616042572044       -0.11291782560848
C            0.05510213837047        0.41274221784026        0.33990768753792
C           -2.40295688530783       -1.47934256789781        1.75534342323492
N           -5.59122677326200       -4.20850782892312       -0.79270270555124
H            0.32895957915174        4.61161906912856       -1.42863261713675
H            0.13120880919378        0.92942993536182        3.21904012020300
H            2.41956803690620        3.33208071675787        5.12696939960897
H            6.30490561713549        5.66238802581345        4.98637409955361
H            8.77820476520610        5.15705065068694        1.58611859827999
H            9.37104248532739        4.11012513563444       -2.49615820363894
H           10.22383269131574        0.96109439140539       -4.94483942416337
H            6.14061441492612       -1.59685768501115       -5.56640572046313
H            3.01641188994519        0.54327204122923       -3.82229077210441
H            2.67592853512005        0.69458423907074        3.05981389324504
H            5.49257183861777        2.18156386409685        5.28480814892495
H            8.63001651933343       -1.29723562578211        4.37109251964362
H            9.28467859612450       -3.84409251167551        2.04398900390797
H            9.44684973814317       -6.10556963042070       -1.02692668902821
H            3.57274262534158       -6.18546199449544       -6.46869154175422
H            2.16667772708535       -1.07249179729216       -0.99996063895082
H           -0.06820409210540       -4.85477469067341        0.69821101000147
