54
 energy: -12.626781619410 gnorm: 0.000502806741 xtb: 6.5.0 (97a52f5)
N           -2.12288583977687        2.16948324973335       -0.00950192440950
C           -1.17207871297050        1.50298043580293       -0.00877640828209
C           -0.00766187734045        0.72048940049783       -0.00662785465069
C            1.22572148909461        1.35424315402894       -0.00490702751067
C            2.41284262992254        0.64238507389098       -0.00616010332923
N            3.66872755856772        1.33841465288267       -0.02790779422615
C            4.10816177875713        2.27561253724924        0.92889568116679
C            3.47354818167776        2.79328545037010        2.05716820547631
C            4.15768491598078        3.68169904411872        2.84904503730141
C            5.46609897042965        4.06373189408312        2.53940126272614
C            6.10770236307496        3.55906314668763        1.43464637900163
C            5.42530701826565        2.65450878543348        0.61997636744053
C            5.80695433115302        1.94296758533237       -0.57543511619004
C            6.98410704492497        1.92483052948109       -1.32507889708693
C            7.04145638040072        1.12786304283903       -2.44249642792380
C            5.94564784582296        0.35189219701030       -2.82981151632853
C            4.78241496733513        0.35978914357062       -2.10191903668591
C            4.71056019486041        1.15283051502401       -0.95825595814788
C            2.36749733863520       -0.76270934993608        0.00411346129351
N            3.57561462738148       -1.53851510178252        0.03223749501125
C            4.61966578362231       -1.42294945691797        0.97128713040789
C            4.73461740160889       -0.63618678946675        2.11574483974244
C            5.89030284794443       -0.70472062246875        2.85240248995468
C            6.93600865451734       -1.55039296449426        2.47249821648170
C            6.83590696932173       -2.34015102011896        1.35296624124135
C            5.66606682155368       -2.28068615354044        0.59409093575313
C            5.24990682164395       -2.96103401391831       -0.60804520314299
C            5.88090786697564       -3.90171505485262       -1.42324843420489
C            5.21903582663628       -4.35665112272876       -2.53762390444889
C            3.94022085040301       -3.89061750854405       -2.85575992365537
C            3.30641847031477       -2.96619323278602       -2.06324920209643
C            3.96237411930089       -2.49728223117735       -0.92589358832518
C            1.13714865957630       -1.39673953500586       -0.00405747084846
C           -0.05286607360491       -0.68499290983585       -0.00982420395392
C           -1.26506364845793       -1.39113213264252       -0.01543900011689
N           -2.25640546631911       -1.99570619008247       -0.02017373544392
H            1.26439856729021        2.42817921640227       -0.01550497478430
H            2.46977833832549        2.48880262430716        2.29321910876169
H            3.68022680665826        4.09055718497607        3.72424240167871
H            5.97876614587315        4.76292967299231        3.17914109384460
H            7.11592875231304        3.84476175673186        1.19248656701896
H            7.82240718562024        2.52683853718845       -1.02249016303765
H            7.94309821062252        1.10162348713854       -3.03177031913375
H            6.01641544041680       -0.26227859105932       -3.71226189214990
H            3.93567884744580       -0.23699124895133       -2.38827568615403
H            3.92710165130972        0.01559618586786        2.39545734513997
H            5.99444243972291       -0.09688609341198        3.73592395083737
H            7.83247936095758       -1.58419893229820        3.06921312794825
H            7.63544126626582       -2.99524187761012        1.05580080460331
H            6.86709050745120       -4.25178730350818       -1.17492855554303
H            5.69280020824299       -5.08160788279763       -3.17867383610479
H            3.44602261125639       -4.26217875262217       -3.73826054303978
H            2.32589778682912       -2.59751644706336       -2.30540150145562
H            1.10676876216312       -2.47093598402141        0.00663205957582
