51
 energy: -11.829750734725 gnorm: 0.000938383196 xtb: 6.5.0 (97a52f5)
N            2.02934708875231        1.02772578713873       -1.59474962163897
C            2.99079213415279        0.71593556402480       -1.02199579994660
C            4.15938058861882        0.34840946435297       -0.32916335912275
C            5.02956814937536        1.33128282012155        0.08138301333922
C            6.17230956160851        0.95770324310213        0.74936406733207
N            7.11444571775673        1.95058774792898        1.18062689179293
C            8.50867584834291        1.78237826234027        1.12220286429701
C            9.27494761388395        0.72671266590519        0.63348203670955
C           10.64289487201595        0.82296861949753        0.68528989491554
C           11.26295469255315        1.95673803635858        1.21922828485504
C           10.52162263347387        3.00759433073078        1.70344888583252
C            9.12900234517997        2.92499284536878        1.65270277847214
C            8.07999881136377        3.82419826136417        2.06753240003506
C            8.10853225224323        5.07792669854828        2.67989068236203
C            6.91756334470567        5.68496818546686        2.99407198911594
C            5.69792159208825        5.06146926069599        2.71574274811672
C            5.65335926358066        3.82887636869533        2.11326751875856
C            6.85278129706483        3.20297893643592        1.77348050658792
N            6.43806070295654       -0.31925287959440        0.98717474855742
C            5.53676139165521       -1.19763105128334        0.56335620674987
N            5.81701727741337       -2.57457997243866        0.84089519299102
C            5.05777394182784       -3.68267220389948        0.42194824915388
C            3.89422438730697       -3.75772515175299       -0.34017829182592
C            3.35399779818793       -4.98959171361722       -0.61053619707710
C            3.95565557711813       -6.15698407680541       -0.13204087175339
C            5.10339754542983       -6.10378134468544        0.62111483171219
C            5.66354914700266       -4.85636128252725        0.90223228677806
C            6.83533368094049       -4.46023063780596        1.64352939447215
C            7.80925074565470       -5.18844649924056        2.32923383103479
C            8.82811920988129       -4.50716883797210        2.95032392585237
C            8.89517618700760       -3.11191747830522        2.90177310502043
C            7.94457758468752       -2.38585644899774        2.23070910742299
C            6.90461510579241       -3.05780795052058        1.59190111988305
N            4.40575327400647       -0.93383142569623       -0.08700604243614
H            4.83463832874915        2.36387516491551       -0.14036994728866
H            8.78304456668969       -0.13920644879463        0.23022774749380
H           11.24788352242387        0.01306937179700        0.31244734191958
H           12.33886668506849        2.00604563111901        1.25079576248203
H           10.99267472462427        3.88261277031930        2.11515134409936
H            9.05143915314129        5.54587283911159        2.90115850421758
H            6.92229904933797        6.65228149487416        3.46863269731912
H            4.77838009538744        5.55579005769471        2.98260147380477
H            4.71710888779039        3.33780668362695        1.91918139539333
H            3.44175960428851       -2.85162488588154       -0.69669906964576
H            2.45395594311436       -5.05911798771584       -1.19882304378128
H            3.51106337594158       -7.11229835598554       -0.35712509463121
H            5.57126886323240       -6.99799814478886        0.99293357764290
H            7.75133371484972       -6.26188604650700        2.36318792247462
H            9.58731307403007       -5.05536235742898        3.48338111605798
H            9.70387152552357       -2.60116074599212        3.39797910718646
H            7.98219752215563       -1.31429718327105        2.18383278685816
