22
 energy: -4.736976752225 gnorm: 0.000599205070 xtb: 6.5.0 (97a52f5)
C            1.03986687180726        0.00315354975010       -0.09856365331747
C            2.25109996479685        0.03008955744621       -0.02195343721094
C            3.66179224334593        0.06397690049177        0.06680319723528
C            4.34836963309509        1.28175568711250        0.07652783537263
C            5.71473560171041        1.31719921925646        0.16321759185188
C            6.46345936095909        0.13735094003722        0.24643195072404
C            7.89897051856225        0.12940975952739        0.34804901232470
C            8.67359177896546        1.40136218345357        0.36748794603786
C            8.52812242186851       -1.05633440060735        0.42665362436089
C            7.81799459626880       -2.31872044690365        0.41257202017791
O            8.46426989484350       -3.35507107956833        0.49028209205615
O            6.44483025598953       -2.31310069463001        0.31393364710700
C            5.78545823031057       -1.09683564640114        0.23605530540367
C            4.38961342147189       -1.10314343934272        0.14565530888333
H           -0.02409223381466       -0.01644039037441       -0.16321849993907
H            3.78403238678020        2.19643170937191        0.01524533183159
H            6.22110624499893        2.26622256687850        0.16769824593946
H            8.35959122047171        2.03620394496789        1.19651724689945
H            8.53466818853857        1.95522309908558       -0.56154822944530
H            9.74159575454395        1.21451714462494        0.48464730660295
H            9.59821904677430       -1.09393366977271        0.50588837002632
H            3.88090459771361       -2.04948649440035        0.14051778708164
