107
 energy: -19.185805778112 gnorm: 0.000171766009 xtb: 6.5.0 (97a52f5)
C            2.56968586312890       -0.86347648241186       -0.16643433682683
C            4.03375548312729       -0.40642283007645       -0.30771899052558
C            4.65864232692970       -0.22997180415964        1.08934207747921
C            4.81483708151529       -1.50611895190148       -1.05329703606232
C            4.07657658246390        0.93340062308150       -1.05977959298279
C            4.70156428371633        1.07947379005006       -2.29271641471499
C            4.69059475458067        2.28491401049040       -2.95954137208469
C            4.05528596831900        3.39505467796032       -2.41232148707565
C            3.91731346665133        4.65673739217141       -3.18534926596837
C            4.69500653737896        5.81866138340121       -2.91031879432877
C            4.42087337162369        6.88582831732584       -3.71864397916325
C            5.05650483589427        8.18033773606986       -3.66020300615641
C            6.27288195919797        8.45602567385940       -3.09287151651726
C            6.65709927102822        9.81139535597146       -3.18655559277085
C            5.73378262385215       10.61137570087921       -3.80709118493488
C            5.84776291566483       12.03448912652706       -4.01639463263822
C            7.00181409324957       12.76534736395467       -3.97750433719936
C            6.82259394494437       14.16128928111859       -4.20183528930063
C            7.95135726912821       15.12780640123505       -4.19465239860455
C            8.15420291985524       15.98288788833793       -3.11628436932995
C            9.11606693598129       16.96692546195429       -3.17180337551414
C            9.90594005098765       17.14182326709954       -4.30109716419152
C           10.94470426556474       18.27417338441270       -4.33621317917401
C           10.23663516236857       19.62510382827895       -4.11883796515990
C           11.98195630277585       18.04690538162278       -3.22116128932485
C           11.68475215225761       18.33042649195378       -5.68742883098469
C            9.71515564146750       16.27127991385909       -5.36748635665117
C            8.76149605818352       15.27920963186152       -5.31630199092535
C            5.49954816673852       14.50684348977724       -4.40492823667772
C            4.94793595950885       15.85138906000507       -4.62642149232941
O            3.78859834711973       16.10332534554025       -4.32042851915243
N            5.77593169827840       16.82112028287375       -5.17946982417848
C            5.46689908582791       18.24252634086058       -5.03423459787117
C            5.64773208518462       18.69454525096855       -3.57099861821167
C            5.34013546905216       20.19192906045649       -3.39752735076153
C            6.20825211631680       21.04544300487684       -4.34108636535264
C            6.02675309158774       20.60586864507844       -5.80659877602135
C            6.32954907468349       19.10609136685232       -5.97795891040689
S            4.50199859274261       13.09052423764200       -4.34789083747545
S            4.37048423660460        9.64625012844943       -4.31232346426341
S            3.17382512861872        6.44948760072613       -4.85515251627236
C            3.03905096855546        4.83539435991885       -4.23768645446275
C            2.11125540441219        3.84475319740617       -4.80335542157585
O            1.77671855381408        3.90815161893476       -5.98019501210293
N            1.63621801469439        2.84137607242530       -3.96750324377322
C            1.07269463141365        1.60899585360070       -4.51568429266751
C            2.17152203448148        0.75571487470576       -5.18140557356322
C            1.60798301414141       -0.56139999679279       -5.74210217074373
C            0.88884697044897       -1.36405741057466       -4.64178086187020
C           -0.22226708757823       -0.52292321311102       -3.98530543083457
C            0.33983181675142        0.79699994828281       -3.42711354251480
C            3.45002839813433        3.25921170530535       -1.16642786725183
C            3.45697254622497        2.04870263357092       -0.51086231421230
H            2.50655544015843       -1.80806791483089        0.37266160410793
H            2.11517867178856       -1.00537523442832       -1.14590453884306
H            1.97583298352540       -0.12930276885692        0.37591312165075
H            4.66649005754505       -1.17334214771897        1.63420389540244
H            4.10237517514589        0.49191674116589        1.68512736940991
H            5.68646182188663        0.12211116645243        1.00937833045857
H            4.78139943016997       -2.44472463918455       -0.50101509660645
H            5.86199798938718       -1.23060144678677       -1.17268808989110
H            4.38904776560606       -1.69001740053473       -2.03906646580451
H            5.19230148542586        0.23790540698143       -2.74792388560822
H            5.15183843404825        2.37559140476224       -3.92798877829650
H            5.42796299687151        5.84867510751398       -2.12080397147039
H            6.88753027856244        7.69948568379273       -2.63021175567316
H            7.58372511017097       10.19043754957748       -2.78429312102596
H            7.97088365833492       12.33055738107325       -3.79500755615627
H            7.52793377474058       15.88108847595378       -2.24666394741046
H            9.24937311853557       17.62195989213136       -2.32855796438872
H            9.72468766072207       19.65618860211167       -3.15840325426270
H            9.49777320736109       19.80139073731812       -4.89919423880917
H           10.95109082742378       20.44723032975041       -4.14160887225101
H           11.51342094729340       18.05299694088478       -2.23824443296250
H           12.74333163157729       18.82607855499878       -3.23256908148871
H           12.47988161152390       17.08644132269862       -3.34925365810310
H           10.98842224524211       18.49724309372704       -6.50856084843354
H           12.22967163790325       17.40621538499902       -5.87609886415677
H           12.40732701205670       19.14580156813131       -5.69807201982468
H           10.31366943859284       16.37141598803763       -6.25527926833476
H            8.60905682855429       14.62727627706190       -6.15958232264887
H            6.77171774110320       16.63915210648062       -5.26927130847952
H            4.40854965228070       18.36591004373167       -5.31082433865722
H            6.68074550775614       18.49076440938238       -3.27044837788999
H            5.02309358772214       18.07839103484008       -2.91225352414252
H            5.48213413841009       20.49921028047679       -2.35212900320748
H            4.28038446764871       20.37230835294736       -3.61504957198754
H            7.26239149331045       20.93970671119207       -4.05791361921608
H            5.97857932258687       22.11345409088950       -4.22273250703381
H            6.65823325871921       21.20805533278791       -6.47436123865064
H            4.99484797667864       20.80556644918275       -6.12004007574457
H            7.38473815585471       18.91308767204447       -5.75831964672089
H            6.18341050066354       18.78570916996962       -7.01695934991194
H            2.05718904218207        2.71118283288422       -3.05172231852060
H            0.34484857575875        1.90794815818254       -5.28549757035331
H            2.94259362021268        0.54034750224723       -4.43452053861248
H            2.67391932631488        1.34078904232521       -5.96185330374963
H            2.40497595470272       -1.16009259537746       -6.20450276591218
H            0.90140246701225       -0.33852064733332       -6.55082920388178
H            1.61664097324288       -1.66317365413104       -3.87757743141392
H            0.48294612293285       -2.30232059226390       -5.04457547241936
H           -0.72840209582689       -1.09477648966686       -3.19527473986026
H           -0.99722762649428       -0.30136968371035       -4.72915963707579
H            1.04651306746733        0.58595953142384       -2.61793318189678
H           -0.45098020225702        1.40711438614675       -2.97333226338007
H            2.94679480971644        4.10841293231423       -0.73642095634659
H            2.96361848259570        1.96266209350011        0.44164302246819
