52
 energy: -11.807373786642 gnorm: 0.000761529912 xtb: 6.5.0 (97a52f5)
N           -2.23260978704832        2.39713661564547        0.45180392991992
C           -1.28417313304103        1.73043593953337        0.38831664310960
C           -0.12341433129924        0.94616093682081        0.31949734013452
C            1.10781545302904        1.55253210024529        0.51155187142180
C            2.30060778848392        0.84737441290347        0.45801977311171
N            3.52660268881402        1.58741732461864        0.52066365595281
C            3.85549433185715        2.56813708983043        1.47578199083169
C            3.19821858586884        2.96550571670168        2.63957006569311
C            3.77833845105110        3.92666452669722        3.42867225757632
C            5.00608212769850        4.49802035169685        3.08306611790910
C            5.67070039653799        4.11059494852940        1.94561451586084
C            5.09373150224491        3.13349302201719        1.13363637469846
C            5.53596581827219        2.49847945010028       -0.09196089652173
N            6.63108998228773        2.64499989346396       -0.85790274983350
C            6.70068124691318        1.90252984310756       -1.90400369449167
C            5.72654175173051        1.01151656414516       -2.24625671300221
C            4.62763116788454        0.81400840044461       -1.55226306643273
C            4.54154656662399        1.56476588674420       -0.45213163757675
C            2.25728836719781       -0.54388127106480        0.23121587020621
N            3.40363102804626       -1.40173677090529        0.25362083268052
C            4.63449904616506       -1.29975014419576        0.93590667448137
C            5.09948274218485       -0.38758000476522        1.88271258044717
C            6.35460871953455       -0.54707949327533        2.41184076480524
C            7.16560142326880       -1.61631230890147        2.02649683099033
C            6.71822511054882       -2.54558491578275        1.12096887238269
C            5.44171891094201       -2.39317749442089        0.57698597293685
C            4.66518344856123       -3.23807168114262       -0.30526242346763
N            4.89480094538827       -4.43112855915189       -0.88200340409858
C            3.91818144262658       -4.94536821395911       -1.53992058125731
C            2.69904589702887       -4.34285979960190       -1.64896340849984
C            2.39527258046069       -3.18367509968066       -1.11097305384806
C            3.40876198743135       -2.61781757338037       -0.45184002402062
C            1.02793380056136       -1.12832129026549       -0.02793370098810
C           -0.16303510728463       -0.42611075961201        0.02552750426176
C           -1.36392746173897       -1.10459159226186       -0.22423491965693
N           -2.34940441024894       -1.68358119391899       -0.42776590205987
H            1.14269985699786        2.61405755733403        0.67614390938977
H            2.26130463452807        2.51127438419370        2.90823416010596
H            3.28161246010425        4.24484893981450        4.33045936300359
H            5.43816772907974        5.25119931573777        3.72106069865778
H            6.61904940911532        4.54100687264683        1.67703437142582
H           11.95954821999091        2.08906825602137       -5.39334926498679
H            8.43003603587505       -1.71268043360395       -7.67179066843450
H            5.84451942436584        0.41770480202640       -3.14107030539973
H            4.47143465388013        0.42751047898944        2.18517170968791
H            6.72126296006516        0.16245649458920        3.13520555165464
H            8.14902368073975       -1.71859996073039        2.45472800590667
H            7.32618452754594       -3.38588116640645        0.83602638663432
H            8.29393546738248       -8.51553769157921       -5.15957054359281
H            3.61551696017881       -7.29688679068844       -7.48169118144274
H            1.91591086717500       -4.83565751311780       -2.20711308109144
H            1.01643403386972       -2.16050840478816       -0.33184337040589
