100
 energy: -21.847449486905 gnorm: 0.000731690122 xtb: 6.5.0 (97a52f5)
N           -3.15368450532306        0.60744898915530        0.14302089122887
C           -2.00724828334327        0.41900891045386        0.14647331022643
C           -0.62246710234138        0.20033428792337        0.13914063004639
C            0.18258892232323        1.32684737311263        0.17462524435600
C            1.57465118827469        1.25080310494730        0.15615722121846
C            2.36155246465228        2.46990835778863        0.17326512843213
C            3.66414306265624        2.55390016782080       -0.15206414311770
C            4.44588641811608        3.77627266268252       -0.15373074825830
C            4.00906413655462        4.94887250637621        0.46831166521761
C            4.77042325454157        6.08862103638286        0.43089921082497
C            6.00346256409513        6.13346514613123       -0.23070831719260
C            6.71933946320817        7.39577895762234       -0.23622731525042
C            7.82446720882096        7.69787997159538       -0.94218020727980
C            8.48774306663954        8.98525452648403       -0.94876719591608
C            9.45703091771026        9.25516985463676       -1.92083405341657
C           10.09778042266065       10.46712794038582       -1.96484292645514
C            9.80997301346415       11.46283711708739       -1.03138419958101
N           10.48234939785514       12.72464702517743       -1.07576933198296
C           10.83060017805313       13.30941058371922       -2.34048405085105
C           12.03029915290331       13.99784454746431       -2.50304037760351
C           12.35687921456806       14.56360423890674       -3.71484229439351
C           11.49264850496104       14.45286696968915       -4.78663242345045
C           10.29895797946637       13.77324345323916       -4.64170834935673
C            9.97038354169333       13.20621909025471       -3.43116706829770
C           10.81774638024296       13.40796471978918        0.14167367056604
C           10.75604239336630       14.79704364876083        0.22065832607224
C           11.08779741132611       15.45001868781218        1.38634771213076
C           11.48733015819388       14.72905654429334        2.49468611823045
C           11.55355312651141       13.35089364867889        2.43268492689417
C           11.22258302886222       12.69578685986042        1.26812984249127
C            8.85201127247247       11.19467382237803       -0.05320358136085
C            8.20262808891433        9.98626437117560       -0.01322038215328
C            6.46291368672461        4.94811663518717       -0.85401718172148
C            7.67983400660284        4.84522335037805       -1.54263790884880
N            8.68252411369492        4.75794815995953       -2.12288847610768
C            5.68250870393793        3.80509256829766       -0.79720984517267
C            2.15635700670161       -0.01909166054052        0.12008886193227
C            1.37711585447044       -1.14718386272204        0.09434202847842
C           -0.02150363534746       -1.08094918313322        0.09493483871304
C           -0.75505265711582       -2.33207483992524        0.04858241778084
C           -2.08623863132029       -2.48894247327523       -0.07029892874911
C           -2.77859105626079       -3.75906463816258       -0.13357900420619
C           -4.13306197635739       -3.78740062486139       -0.48284709480119
C           -4.82075918793496       -4.97175096001235       -0.55898549348427
C           -4.19047374536272       -6.18430927281379       -0.27988419643234
N           -4.90861594146127       -7.41845394570806       -0.35680220506148
C           -5.94056102696737       -7.59303253192217       -1.34034704587956
C           -7.10271625316594       -8.29795944819608       -1.03687929510681
C           -8.08835978353989       -8.46827463371776       -1.98274396962090
C           -7.93235915078095       -7.93875298889437       -3.24888928217200
C           -6.78501423506493       -7.23824501665422       -3.56608548255285
C           -5.79809703278004       -7.06644136764119       -2.62196963394734
C           -4.60708569487759       -8.48754651509325        0.55348527428575
C           -4.62929863858871       -9.81343034251475        0.12804212621104
C           -4.34814083709243      -10.83713203761202        1.00448714659371
C           -4.04015768525481      -10.55659051442263        2.32143617093228
C           -4.01479689808821       -9.24683682210651        2.75911028367338
C           -4.29565588899765       -8.22151561616316        1.88469600579180
C           -2.84236554711695       -6.16063732079559        0.07841477624250
C           -2.15017745137145       -4.97754321215533        0.14752651402661
H           -0.28558953749373        2.29491505321569        0.20449459043331
H            1.83558349763809        3.37332658804152        0.42417335148856
H            4.16840952234151        1.66410179484969       -0.48263192330209
H            3.07139822429077        4.95370335006494        0.99491618277010
H            4.41169402961904        6.98063515296370        0.91571450981948
H            6.28129503877226        8.17592653478627        0.35960782363475
H            8.25501154799951        6.94808049378162       -1.57747036967656
H            9.69273037739953        8.49649881141312       -2.64697215382127
H           10.84406501511350       10.66058384013532       -2.71522295689056
H           12.70331936312658       14.07394834822980       -1.66698606723803
H           13.28862071923535       15.09335002059363       -3.82759562786318
H           11.74882011241679       14.89694905031911       -5.73455452853519
H            9.62319859007959       13.68799271630092       -5.47692820884928
H            9.03751415865291       12.68412908254623       -3.30951378212985
H           10.43714568954435       15.35316577045083       -0.64340870968165
H           11.03553466750470       16.52534800100002        1.43429661854211
H           11.74774855769733       15.24116598255407        3.40645213375753
H           11.86657907561790       12.78763585098197        3.29655126086193
H           11.28372361131220       11.62315967606997        1.21065891198909
H            8.61953034832404       11.96020860742692        0.66619166524550
H            7.47621581020950        9.80294933568606        0.75804910835772
H            6.03965767374575        2.91209209448637       -1.27909607755793
H            3.22775323356133       -0.11272150919809        0.12991224237979
H            1.84835243897641       -2.11497308106953        0.06782473891859
H           -0.15071413250740       -3.22025129853097        0.08298906040871
H           -2.70689177188003       -1.61688540703622       -0.14256568957316
H           -4.63538679941312       -2.86047915947456       -0.69921110066814
H           -5.86375394222669       -4.97834481944363       -0.82269117221169
H           -7.22211901236663       -8.70131071039898       -0.04661200878353
H           -8.98341058482878       -9.01496831571029       -1.73471842696350
H           -8.70438438434743       -8.07281509184750       -3.98874654025923
H           -6.66149099896302       -6.82677750367118       -4.55446469431224
H           -4.89770089992946       -6.53061995451465       -2.86658961598561
H           -4.86201776076339      -10.02503325697383       -0.90083319360534
H           -4.36798121947151      -11.85891171166450        0.66242931001880
H           -3.82063513828777      -11.35865551982196        3.00689469586149
H           -3.77665489746379       -9.02722779049027        3.78700239138128
H           -4.28906807423836       -7.20009148184386        2.22272944002076
H           -2.34690536162015       -7.09222874183924        0.28876312733740
H           -1.11426324675112       -4.98932080891933        0.43512335189478
