96
 energy: -21.067321733815 gnorm: 0.000720487884 xtb: 6.5.0 (97a52f5)
N           -2.81400280610765        0.12197528852273        1.53470209082257
C           -1.73835696661892        0.07579339516440        1.09946563316241
C           -0.43777310991863        0.04417427429360        0.57227414136181
C            0.34376166344453        1.18281290478184        0.66620135644717
C            1.63576392228653        1.24214738262372        0.14392078700768
C            2.39599593684500        2.47196063935447        0.26408811025446
C            3.67258600669142        2.64443854135481       -0.12278922692097
C            4.41953213705262        3.88384148144838       -0.02179008606940
C            5.78081001826395        3.89828752415034       -0.34415911445949
C            6.51567371546647        5.05470391581829       -0.26674357296010
C            5.92552801247486        6.25368487023461        0.13243433258297
N            6.68807816209679        7.45941061464660        0.20763967939155
C            7.82210744717183        7.66072252509796       -0.65158202830217
C            8.97849940713659        8.26701424556562       -0.16714404379146
C           10.06425044560162        8.46647274107206       -0.98947075944651
C           10.01462947886952        8.06779378290941       -2.31092651967213
C            8.87305178004628        7.46983343515031       -2.80788661742641
C            7.78611812076902        7.26856964104014       -1.98746642203704
C            6.32057649947614        8.49734700531286        1.13098139270261
C            6.37885885952022        9.83585033054542        0.75088289521968
C            6.02919675945102       10.83265464150986        1.63345085222702
C            5.61786954740045       10.51197564774589        2.91237762130609
C            5.55909595843943        9.18933435030074        3.30606704306937
C            5.90747461452217        8.19047889466095        2.42516098686449
C            4.56783229930737        6.24439284985539        0.45141852501552
C            3.83096242795702        5.08880522441670        0.37735808068386
C            2.13466386375003        0.10209729180165       -0.49340244612089
C            1.37404990012416       -1.03476371087063       -0.59768548316769
C            0.08033356032922       -1.09871191944744       -0.07495654026663
C           -0.70936437674303       -2.34706724443161       -0.19665901353170
C           -1.21362488544130       -2.96941586280468        0.94742329916698
C           -1.94007430637364       -4.12971901762404        0.86819192481358
C           -2.20533695515634       -4.73050862289094       -0.36589916346767
C           -2.98295271493210       -5.95438204647580       -0.41485187301509
C           -3.39606511424130       -6.57169126170723       -1.53626972531741
C           -4.17080966483607       -7.79691769899351       -1.58563882374466
C           -4.63661120153067       -8.26892955522079       -2.81748566873024
C           -5.37272228915135       -9.42392880497872       -2.90204893647836
C           -5.67625616809462      -10.16569961009373       -1.76066617793618
N           -6.44245991803698      -11.36835368083731       -1.84843470015852
C           -6.40703918629941      -12.17126243835514       -3.03963670268994
C           -7.56968776401041      -12.75975415241400       -3.53099947252520
C           -7.53850564471051      -13.53435173931808       -4.66845854953989
C           -6.34589746775943      -13.73863000667431       -5.33448171661634
C           -5.18318918964724      -13.16596865968728       -4.85704753584693
C           -5.21179653549799      -12.39007737879450       -3.72027175189384
C           -7.26248483299287      -11.79279209700329       -0.74741787678994
C           -7.33552006359525      -13.13875981816507       -0.39736950371349
C           -8.12450234154805      -13.54975286026797        0.65303509127672
C           -8.85741619844622      -12.62542666573563        1.37140854943897
C           -8.79952091733120      -11.28738736568449        1.03363727256703
C           -8.01069022571067      -10.87363366555169       -0.01595589493129
C           -5.21024587079579       -9.70088520691416       -0.53095089100519
C           -4.47561926329220       -8.54471260443656       -0.44308080891430
C           -1.70127019801318       -4.11423384391386       -1.51136930005653
C           -0.96307483101243       -2.94438172921173       -1.45075793333630
C           -0.51120369692586       -2.37542939100665       -2.65178697238328
N           -0.14704779756361       -1.92192356567428       -3.65705252655409
H           -0.06441224442664        2.05007529020680        1.15414971735661
H            1.87894864905683        3.30162596519593        0.70948499958740
H            4.20207874829935        1.80621868379669       -0.53631793959527
H            6.25357860451579        2.98178730638899       -0.65299513734888
H            7.56529450332660        5.04601988388546       -0.50216331668274
H            9.01213418545762        8.57059581228173        0.86448840873433
H           10.95445068717856        8.93360290201820       -0.60122162650731
H           10.86519451211255        8.22409937966460       -2.95394405438401
H            8.83223172792232        7.16270616814158       -3.84008487023561
H            6.88916429178367        6.81575032177427       -2.37216710844751
H            6.69370582628816       10.07794561381442       -0.24902800524614
H            6.07571525223852       11.86442589291542        1.32567039349138
H            5.34402094254281       11.29304005077628        3.60252640215958
H            5.24109994613009        8.93888300542072        4.30484874543813
H            5.87449983741020        7.15896266654222        2.72938582308981
H            4.09816532649008        7.16729519355641        0.74277812162274
H            2.78332328501038        5.11738961556690        0.61668670618863
H            3.12281211163930        0.11614823321135       -0.91662212037375
H            1.77275418616812       -1.90538177714237       -1.08927448499660
H           -1.01779196287589       -2.52099897574607        1.90607803247857
H           -2.31933645424474       -4.58825650062099        1.76530052479819
H           -3.25372647063649       -6.37855177135941        0.53422495728870
H           -3.15529907966637       -6.12823523538222       -2.48457949339663
H           -4.41440698968729       -7.70801681810353       -3.70904469105231
H           -5.73813894422080       -9.76446557152559       -3.85474228184504
H           -8.49600394423270      -12.59287254748606       -3.00982896070979
H           -8.44601266440235      -13.98130889034760       -5.04006954826875
H           -6.32236956203632      -14.34523998369495       -6.22489105921697
H           -4.25177148408908      -13.32831801235990       -5.37423992117535
H           -4.30727573208138      -11.95167284024494       -3.33655381684292
H           -6.75809502679935      -13.85279581880304       -0.95798896133933
H           -8.16979116398748      -14.59398033759847        0.91557309667136
H           -9.47454016339657      -12.94812527386778        2.19383150994958
H           -9.37402420095850      -10.56623651660739        1.59157330890658
H           -7.97107551173034       -9.83438723820658       -0.29164904712938
H           -5.42385848947389      -10.27428652380220        0.35381872270691
H           -4.12226156508947       -8.21783330171387        0.51812419576072
H           -1.88165901169873       -4.54861926473895       -2.47694250701458
