99
 energy: -21.318723852293 gnorm: 0.000809293378 xtb: 6.5.0 (97a52f5)
N           -3.08040089517547        0.58487736994382       -0.57668915588387
C           -1.95111109796818        0.41599899807694       -0.36089903993689
C           -0.58469308022614        0.22930330184217       -0.10720108100684
C            0.19948537682541        1.37083628973642       -0.07852214746894
C            1.57348328360270        1.32946614182648        0.15529504614756
C            2.33349472222170        2.56519624385955        0.16649609300344
C            3.67557216607552        2.65614847074510        0.17785887690704
C            4.42803005534084        3.89681942990304        0.19383239203508
C            5.80866851776958        3.87335379144509       -0.03236818051516
C            6.54708211503983        5.03020050754774       -0.02797053285319
C            5.94299092858822        6.26459374870561        0.21166969995061
N            6.71159222543799        7.47081221051621        0.21912158901396
C            7.83759124173591        7.61755743929924       -0.66057845545738
C            8.98497325310993        8.28761600033513       -0.24293188447277
C           10.05970230598277        8.43672821223692       -1.09037606623468
C           10.00928331173605        7.92034510818475       -2.37052577539255
C            8.87823614569505        7.25414752367135       -2.80050297951220
C            7.80240202741557        7.10373863438884       -1.95479194743803
C            6.35730772481500        8.54699342869712        1.10242146183288
C            6.46366626454357        9.87285326752313        0.68901768469026
C            6.13002672255772       10.90321980569028        1.53915922423997
C            5.68488128265954       10.62967172492278        2.81786394502008
C            5.57452383035787        9.32016090435456        3.24340389853192
C            5.90730669810986        8.28820816923101        2.39506569806097
C            4.56825960464730        6.29172660550186        0.44678533142053
C            3.82652366888657        5.13692159111923        0.43637286678681
C            2.15676723891313        0.07923236907209        0.37867354947671
C            1.39713742612190       -1.06268464716551        0.36173215064344
C            0.01853298616888       -1.03225620421862        0.11664107791811
C           -0.69323111528495       -2.29670180949565        0.10855021769342
C           -1.98038601308069       -2.49935556894987       -0.22955180290735
C           -2.65260721560199       -3.78217219378452       -0.24836045853567
C           -3.90058501924372       -3.89465562372181       -0.86927531375836
C           -4.56533341538425       -5.09451783155667       -0.91418140882459
C           -4.02360686441483       -6.24264694241621       -0.32758854520458
C           -4.75417895959060       -7.49417968735655       -0.39903260534591
C           -4.46921097564853       -8.60625505407649        0.30328107619927
C           -5.19907765698697       -9.85744151654388        0.21335918813293
C           -4.99994946472541      -10.84896583545478        1.18048736773267
C           -5.67931203544529      -12.03996137343165        1.12387056332459
C           -6.58055317713883      -12.30173409727574        0.09160566070989
N           -7.28580311615151      -13.54493181420867        0.02920380633303
C           -7.70657408197450      -14.19685488167034        1.23789027562001
C           -7.66879668832887      -15.58457137479846        1.35046810671830
C           -8.08009601324067      -16.20714726724284        2.50752496640671
C           -8.53722455144488      -15.45660007611092        3.57325949249523
C           -8.58133737434879      -14.07934985856902        3.47727188172553
C           -8.17048659722207      -13.45459395208047        2.32136247577904
C           -7.58051147952281      -14.14478446344594       -1.24222784680147
C           -8.78512601989503      -14.81088471784165       -1.45483130191598
C           -9.06239553849304      -15.39074568419633       -2.67242498829256
C           -8.14252533149428      -15.31688742381967       -3.70027543241508
C           -6.94277340966538      -14.66067110204247       -3.50524681729259
C           -6.66342370716630      -14.07993836051952       -2.28862913244784
C           -6.77457589879078      -11.32031408027766       -0.88062079406111
C           -6.10302428094072      -10.12486679026579       -0.82110089291244
C           -2.77835030867395       -6.12992896401497        0.30013093316876
C           -2.10852927912735       -4.93076483003197        0.33682551835363
H           -0.27039967594164        2.32332537431785       -0.24990931620299
H            1.75881867072934        3.47264858947873        0.13419506199911
H            4.25279935812681        1.75031851676100        0.14550882121045
H            6.29102151293224        2.92886522806181       -0.21725568677481
H            7.60904905672698        4.99715407499417       -0.19689811958132
H            9.02126834299676        8.68201753458752        0.75740695127074
H           10.94173710757133        8.95695479825110       -0.75437988959242
H           10.85080443172564        8.03815794269053       -3.03348439386880
H            8.83705986019024        6.85317513971488       -3.80002241735428
H            6.91456462340114        6.59590544643316       -2.28861270984962
H            6.80456882846796       10.07970055090350       -0.31025332701148
H            6.21596133291909       11.92472993525662        1.20635862756679
H            5.42459508176381       11.43687394811877        3.48289883698630
H            5.22895651206807        9.10596652481289        4.24150068509560
H            5.83285780034437        7.26677267865772        2.72499478778704
H            4.09282437405308        7.24008837363845        0.62600708021595
H            2.77035702350247        5.18713388321174        0.63137415604703
H            3.21105781447569        0.01191466822719        0.57986214796131
H            1.86900119509982       -2.01455847791278        0.53698731575854
H           -0.10621672550030       -3.15829158504823        0.37071904432714
H           -2.57424101407080       -1.65925085919969       -0.53311833194146
H           -4.33624147246070       -3.02215931867087       -1.32496427889303
H           -5.52274087451327       -5.16042383152090       -1.40231274532850
H           -5.60849578397245       -7.50580526050170       -1.05104123188059
H           -3.66109052721043       -8.57552488037876        1.01083245096443
H           -4.30563174417435      -10.66395759469285        1.98208990543620
H           -5.51411976046817      -12.79575376531582        1.87146283274173
H           -7.30505597731109      -16.16361935806487        0.51983700858261
H           -8.04514408614167      -17.28172696687019        2.58202083299686
H           -8.85990837799588      -15.94492725908054        4.47821717891863
H           -8.93974942254238      -13.49310663783091        4.30754031042410
H           -8.21276718400208      -12.38278868584335        2.23694585744337
H           -9.50089689773935      -14.85923726791661       -0.65305247383431
H           -9.99861684519572      -15.90269334065326       -2.82385571036489
H           -8.36018418280079      -15.77147196276071       -4.65294349741818
H           -6.22360794186513      -14.60431481616092       -4.30595593444892
H           -5.72616800132575      -13.57660884003024       -2.12787425160963
H           -7.47244087790124      -11.51169483947457       -1.67683022427257
H           -6.26251369018091       -9.39096941389792       -1.59061832011629
H           -2.33061312924290       -6.99887027227611        0.74846247052365
H           -1.15798919648999       -4.87207123580443        0.83637296691318
