100
 energy: -21.847568930033 gnorm: 0.000327740562 xtb: 6.5.0 (97a52f5)
N           -2.94123167135006        0.38866306452058       -0.88275447495213
C           -1.82849832218565        0.27816845544785       -0.56759720997206
C           -0.48316566166253        0.15227140506116       -0.19491689903520
C            0.26845772446368        1.31576684274730       -0.18192395422414
C            1.61910305661137        1.32921366818717        0.16412954744336
C            2.35229699727472        2.58129540658278        0.15548658412252
C            3.69152733785468        2.69422307012417        0.21640288134792
C            4.42864221624199        3.94351419762584        0.21801105736907
C            5.81518038839577        3.92815706033133        0.03253389830731
C            6.54166241438239        5.09200140528490        0.02555597093888
C            5.91894429477598        6.32587475128445        0.21342533734430
N            6.67681615720983        7.53826776713133        0.20391242909849
C            7.83054551430038        7.66131931411338       -0.64290006417364
C            8.96895893960287        8.33175583799846       -0.20244518822368
C           10.07280132458166        8.45099602333695       -1.01632080300145
C           10.06029600388358        7.90506064179877       -2.28503491027932
C            8.93796790589333        7.23939342036560       -2.73760733290653
C            7.83319145976511        7.11823219324359       -1.92548824222664
C            6.29101752158016        8.64092118521374        1.03944432148380
C            6.40410466937891        9.95228964845519        0.58441645581241
C            6.04323987800865       11.00889674190698        1.38967162986619
C            5.56407032778932       10.77645732095951        2.66406706935717
C            5.44693950439891        9.48175466740252        3.13057434492082
C            5.80654927808310        8.42344562910271        2.32705928971392
C            4.53793991660130        6.34520910401986        0.40933865944551
C            3.80793736813920        5.18286788748440        0.40927325600623
C            2.21065697589126        0.11408898146155        0.52010052231549
C            1.48211567971916       -1.04703797999766        0.52162746778960
C            0.12862729365735       -1.07329289126952        0.16447516555793
C           -0.54622603130912       -2.35427039277029        0.19317029338531
C           -1.79610770205392       -2.62553942382996       -0.22780686677893
C           -2.45906520847186       -3.91296947620132       -0.23153218879216
C           -3.71375387171739       -3.99302240840267       -0.84768403296172
C           -4.41730046033493       -5.16770718044106       -0.90623844525946
C           -3.90924167771265       -6.33749252059225       -0.33535778593342
C           -4.67102902984320       -7.57035208464727       -0.40990768877661
C           -4.43875029486576       -8.66808142662466        0.33259926270508
C           -5.18466954689157       -9.90947847322418        0.24566554186051
C           -5.04489143368493      -10.87422492760429        1.24917621306437
C           -5.73415904569643      -12.05933261213564        1.19305474861786
C           -6.58603485369768      -12.34192533091597        0.12528115337864
N           -7.29580733362584      -13.58172762402208        0.06045158529875
C           -7.76458764373884      -14.21201035823439        1.26265577869847
C           -7.73045816954769      -15.59746281008117        1.39999310072095
C           -8.18769152072261      -16.20097848075010        2.54963282786896
C           -8.68849406936526      -15.43318436293838        3.58278304729910
C           -8.73017576780233      -14.05795861264404        3.46160047834447
C           -8.27314886695469      -13.45206297673704        2.31315245410484
C           -7.53868810229347      -14.20858445164331       -1.20898958078894
C           -8.74649645705112      -14.85226546619134       -1.46640415036337
C           -8.97349021041823      -15.46059732860044       -2.68027611253634
C           -7.99891651636553      -15.43913564606696       -3.65883012454280
C           -6.79523857801887      -14.80582827335457       -3.41855778222329
C           -6.56626170924963      -14.19579721277928       -2.20599873693344
C           -6.72164986797969      -11.38666817433625       -0.88217156396660
C           -6.04062267608766      -10.19655974164798       -0.82334127953768
C           -2.65966201301219       -6.26937888196334        0.27964416115640
C           -1.92781138891394       -5.09473124003414        0.34015128841419
C           -0.68134759070775       -5.16752688121939        0.97665818949198
N            0.35329351005004       -5.23657795146847        1.50040471929618
H           -0.20796076159908        2.24052009927835       -0.45608301198548
H            1.76468196325669        3.47620197773619        0.06231926981348
H            4.28067439769151        1.79564530190717        0.23549693322197
H            6.31204297650992        2.98421695372898       -0.11229261069327
H            7.60823328371143        5.06545470664276       -0.11251941410121
H            8.97546248990248        8.74816910576934        0.78957732376617
H           10.94841331013378        8.97031260169159       -0.66272049118794
H           10.92498810341818        7.99890166708039       -2.92134842959612
H            8.92647522727874        6.81547027625338       -3.72839711582170
H            6.95223045417990        6.60992372181864       -2.27639473376318
H            6.77216349265032       10.12679677912367       -0.41136770954762
H            6.13456365648273       12.01889826711817        1.02502460322016
H            5.28292076242639       11.60434958212477        3.29407141507733
H            5.07544454411280        9.29979110258578        4.12572005609010
H            5.72859269376624        7.41340821395582        2.68947880172933
H            4.04846202739925        7.29302928762471        0.54870280399207
H            2.74614325209270        5.22617996443130        0.57325270478806
H            3.24500403466284        0.09186518063689        0.81347133462390
H            1.95930159002455       -1.97016504650691        0.80254137447105
H            0.04131548467055       -3.16455281213878        0.58037271256929
H           -2.37948592093739       -1.81685959871827       -0.62451456785695
H           -4.12931415295434       -3.10449532939607       -1.29101997475049
H           -5.37882979166048       -5.19724965181499       -1.38955498297646
H           -5.49916524909821       -7.57866192978720       -1.09489426203064
H           -3.66225472547898       -8.62989080482169        1.07476682352564
H           -4.38815244096945      -10.67346972522520        2.07818556299514
H           -5.61297470314321      -12.79545099066173        1.96814511072299
H           -7.33287135441841      -16.18970181270397        0.59458537212415
H           -8.15454009565155      -17.27404127124490        2.64375973503145
H           -9.04698284075917      -15.90658206241028        4.48209651738007
H           -9.12298806130367      -13.45839812117868        4.26638061369893
H           -8.31379651282537      -12.38203553937049        2.20836207172262
H           -9.50396308366003      -14.86018740406042       -0.70243156511978
H           -9.91310969061307      -15.95406985081636       -2.86744000766867
H           -8.17708897067677      -15.91670181346142       -4.60834512930072
H           -6.03334640398200      -14.79113808765180       -4.18062180154007
H           -5.62659184305980      -13.71027007643922       -2.00886121351383
H           -7.38101463811252      -11.59462122993519       -1.70646418975932
H           -6.15286958744427       -9.48342008445786       -1.62029797819252
H           -2.23024328120070       -7.15719363449493        0.70656273528655
