36
 energy: -8.339275505444 gnorm: 0.000786822717 xtb: 6.5.0 (97a52f5)
N            1.25360135623892       -0.00294009237864        0.30944476570579
C            2.40200513347593       -0.01816867418845        0.14038787764235
C            3.78998014431540       -0.02580649875919       -0.06250254479034
C            4.45307993352715        1.17204862401738       -0.28228657833692
C            5.82414833860009        1.21487229640915       -0.48682600717539
C            6.48651814754228        2.43763629375058       -0.70796098124540
C            7.17852076606157        3.42454496614585       -0.91021729507544
C            8.08152360473867        4.46997079075356       -1.14142412627116
C            7.95191916442163        5.71007546173166       -0.53772502317392
F            6.91788933435195        5.97620004139663        0.28010505758307
C            8.90156972074875        6.69074674676398       -0.77775824663489
F            8.72781767161660        7.87939258830863       -0.17184956750298
N            9.95682655586372        6.51647886634424       -1.55979077554247
C           10.08766328392523        5.32870024040380       -2.13136751940940
F           11.15901647156694        5.09104775589906       -2.91001316377930
C            9.18453244969528        4.29176196192328       -1.96120532875338
F            9.39773706043876        3.11998851091578       -2.58659907313473
C            6.55844313851021        0.01636275343149       -0.47056832587763
C            7.95150506266216        0.04728740238415       -0.67475106667143
C            9.14759441495675        0.21027181650523       -0.86591525770778
C           10.49427246623882        0.52039306997267       -1.09380812447042
C           11.04788995316733        1.69700357672725       -0.61491671089642
F           10.31622160746585        2.55614366937436        0.11729744893615
C           12.37051874236527        1.99784163676208       -0.89761592864329
F           12.84607645046595        3.17193683164891       -0.44381104729516
N           13.16946728622251        1.20593654030360       -1.59723446473134
C           12.64455516250808        0.07763639348220       -2.05152127864344
F           13.41892236175716       -0.76272265865141       -2.76163545834429
C           11.32873774793015       -0.30014169656979       -1.83505220741335
F           10.87930075970140       -1.45809659151045       -2.35075496417491
C            5.89475988939825       -1.18153342906532       -0.25114315595498
C            4.52373886955998       -1.22413813911054       -0.04663209240200
C            3.89588696989256       -2.45934141099644        0.17303231318071
N            3.38368851304402       -3.48520980870919        0.35563182776500
H            3.88955208846810        2.09276094995555       -0.29368511915777
H            6.45901937861238       -2.10176078514623       -0.23869785730686
