96
 energy: -21.780335433948 gnorm: 0.000823497851 xtb: 6.5.0 (97a52f5)
N           -2.97877244544703       -0.85167734074345       -3.12320673283615
C           -2.12298768599200       -0.44141533264607       -2.45319801045110
C           -1.07421449330362        0.03898361805932       -1.65672831590377
C            0.13408596035755       -0.64001953268557       -1.67577012472876
C            1.23301796765976       -0.21817611380504       -0.94307891919731
C            2.40586700191186       -0.98331955486542       -1.00341975843807
N            3.36664890208766       -1.63357818658846       -1.06389853611604
C            1.12385478545552        0.94543240557708       -0.15523078822683
C            2.25530394964162        1.46286852212208        0.64644890373324
C            3.53029618852160        1.57794816499525        0.10283472390922
C            4.58301230872876        2.10319504891995        0.83727296967239
N            5.88885033414289        2.23135208863711        0.25286002659148
C            6.18241729224626        2.79085287565048       -1.00706249993346
C            5.35125248353713        3.36314016626380       -1.96991873716241
C            5.91462544307472        3.84979126051405       -3.12345759641758
C            7.29453874061720        3.78152589168512       -3.33624606695780
C            8.12866639395177        3.22882247859145       -2.39492486158075
C            7.57075882738670        2.72973638331147       -1.21665357661035
C            8.15333203019474        2.10961227650914       -0.05043047302397
C            9.46953297113671        1.78669595765983        0.28418701622177
C            9.71123212460719        1.17308000640672        1.48939104646530
C            8.66492855833970        0.87215579993274        2.36619427179102
C            7.36552400421496        1.18396049691006        2.05118492628415
C            7.10265576519941        1.81425721144260        0.83509460822205
C            4.35429065992886        2.51302353566095        2.14116323876663
C            3.09612623048986        2.40747981636320        2.71246194948927
N            2.87448209030731        2.83757970793304        4.06542006475597
C            3.27899873688959        4.06846112942153        4.61988472698717
C            3.93558642494246        5.15795862130434        4.04805555321425
C            4.20319420616878        6.25328790241081        4.83118224328283
C            3.82586946333041        6.28663037788754        6.17683076304656
C            3.17270879337185        5.22511383279659        6.75446372495339
C            2.89252713137258        4.10484779521157        5.97056031158004
C            2.23138987824683        2.85534286419698        6.26146010636889
C            1.66112078677988        2.34224456690254        7.42774836341553
C            1.10999835838005        1.08444854227528        7.39353884953965
C            1.11972039126227        0.32642144462759        6.21902875896733
C            1.67622515681875        0.81761947844723        5.06406807653715
C            2.23355400407803        2.09597186171923        5.07861614343459
C            2.05606344126800        1.88623533288874        1.95686270061420
C           -0.08820996141459        1.62235715714730       -0.13577567070671
C           -1.19499042720929        1.19843786298854       -0.86243517549101
C           -2.45373888611698        1.97285900954911       -0.78798885251030
C           -2.44361111707030        3.36197419376148       -0.92887208307114
C           -3.60510264937058        4.08817850557779       -0.84211952224667
C           -4.82593125130707        3.45870417257605       -0.60291381424979
N           -6.03564688888519        4.21757821972739       -0.50991080550927
C           -6.20773336073382        5.39957779377334       -1.30750450350875
C           -6.83502110047412        6.52651400609393       -0.78262728686727
C           -7.00425885237696        7.65702655453175       -1.54951048031262
C           -6.55267615019369        7.68288321948393       -2.85449288444185
C           -5.93019912441808        6.57250991907584       -3.39021006521663
C           -5.75869656258872        5.44118218164506       -2.62507748758652
C           -7.08677956095574        3.80141049564915        0.37532521948901
C           -8.42236134395727        3.93498447412673        0.00424644254957
C           -9.43056527229196        3.54043991172132        0.85436721013656
C           -9.12452921218851        3.00665900438076        2.09082722882972
C           -7.80489117284023        2.86930887635159        2.47447497256649
C           -6.79486296118817        3.26274882066927        1.62598577979690
C           -4.83749913564653        2.07248564841192       -0.45574168128765
C           -3.67686354351012        1.34550302772777       -0.54593218216817
H            0.22273856547215       -1.52498079412674       -2.28115414296098
H            3.71051136101532        1.24480855953472       -0.90199324699699
H            4.29218672789690        3.42365718207912       -1.79539692119967
H            5.28399970721157        4.29254640531935       -3.87674849886443
H            7.70922362835336        4.17129335565775       -4.25119907118685
H            9.19200257124809        3.17721539641370       -2.54849142127428
H           10.26858618382734        2.01639037345605       -0.39815223393402
H           10.72144532712987        0.91588225996881        1.76214912610278
H            8.88254851106026        0.38513606570450        3.30249282706155
H            6.55517775192040        0.94289928664716        2.71526455670623
H            5.16338790102361        2.92086346306459        2.71647690139835
H            4.21378649579491        5.13044833368009        3.00996291028084
H            4.71065119162392        7.10170418961290        4.40263957989782
H            4.04997574214640        7.15905078243042        6.76795577588180
H            2.87772865438018        5.24405164867251        7.78865255179541
H            1.66251008622132        2.92953526110453        8.32887874829821
H            0.66724318116153        0.67309720649710        8.28561526422122
H            0.68579489487955       -0.65991030998811        6.22219599381149
H            1.69668838026074        0.23502534868944        4.16079089637985
H            1.07780741744856        1.81563274014538        2.39446511035963
H           -0.17501747510694        2.50989827849261        0.46444715430723
H           -1.50837426895186        3.86006851978618       -1.11781542175062
H           -3.58531743018626        5.15872298107377       -0.94631175205439
H           -7.17791394969652        6.50221897967598        0.23686180670605
H           -7.48925434713014        8.52347544262617       -1.13082547318603
H           -6.68672978005316        8.56787767845834       -3.45457572869787
H           -5.58030762055419        6.59132742723924       -4.40931844450836
H           -5.28450617718821        4.56925562828595       -3.04020273243014
H           -8.65396233092448        4.34446498279053       -0.96332303021881
H          -10.46001466209140        3.64746608100515        0.55416104290584
H           -9.91453611758028        2.69859654032346        2.75585948934043
H           -7.56578392129795        2.45534298209714        3.44028484304712
H           -5.76552256928124        3.16867745464377        1.92446446720143
H           -5.77628473930715        1.57671009658003       -0.28214187106841
H           -3.69760351795775        0.27629571546049       -0.42606248370817
