78
 energy: -17.331815137592 gnorm: 0.000629447963 xtb: 6.5.0 (97a52f5)
N           -3.35823071428028       -1.59889611302692       -0.13761266262019
C           -2.39446454815976       -0.95311098566960       -0.07279600641029
C           -1.21505018077568       -0.19990282592033        0.00231053772288
C           -0.00823048514084       -0.88152794165512        0.02587080984537
C            1.21397606590047       -0.22887741416165        0.06822657828260
C            2.37573414955958       -1.01070381110533        0.12431940750641
N            3.32372098418939       -1.68091829918418        0.17177278124532
C            1.23692494716312        1.18262798821894        0.07710534085214
C            2.49899766391818        1.95333313461467        0.10134240649708
C            3.59345740005309        1.58247612749802       -0.68198565111869
C            4.75265053725688        2.31728898244026       -0.67373106278202
C            4.86817948660441        3.46305456306790        0.11151911184268
N            6.07333870418403        4.23356561208271        0.11501362836882
C            6.90659210853947        4.28749111316941       -1.05372940493360
C            8.29409121191009        4.28490620607472       -0.93479570027849
C            9.09539085437882        4.33613521917289       -2.05294096524460
C            8.52677141711866        4.39271004826253       -3.31025759631880
C            7.15230607439325        4.40078760401760       -3.44498401287826
C            6.34882461443216        4.35037650412134       -2.32829925600719
C            6.46029544774951        4.96692374397525        1.28821675842838
C            7.01057852884150        6.24141859580487        1.17794213386536
C            7.37963777790115        6.94665356672460        2.30104293365615
C            7.20876991576069        6.39194325105390        3.55426259548452
C            6.66846995443215        5.12713941774069        3.68011666447080
C            6.29829297758078        4.41987193118668        2.55865300111277
C            3.77588892689042        3.83944694871968        0.89153632976745
C            2.61808017320136        3.10187004821460        0.88731982102639
C            0.02341487298485        1.86138264354281        0.06405566773428
C           -1.20549263679175        1.21142385703148        0.03300902301787
C           -2.44913910403129        2.01194549917528        0.03566870037140
C           -2.54194181711641        3.18704292383113       -0.71372082162437
C           -3.67903116412360        3.95571030776595       -0.68664917799477
C           -4.77615405594835        3.58533968673169        0.08944873524416
N           -5.95684735579864        4.39192092007712        0.12529144489455
C           -6.32528704099794        5.19176042485009       -1.00974561865540
C           -6.83137572040971        6.47747222893397       -0.83564338284739
C           -7.18116220507461        7.24777169800286       -1.92151341694215
C           -7.03480266228594        6.74812637668271       -3.20070317435162
C           -6.53904425934020        5.47298724856671       -3.38988334807237
C           -6.18840021853953        4.70059581456028       -2.30567518710633
C           -6.77545049601822        4.43134064538870        1.30520097734015
C           -8.16369892234755        4.46959023237489        1.20242947841517
C           -8.95080680460199        4.51438759484941        2.33086175879793
C           -8.36677908921261        4.52398431598439        3.58233250944465
C           -6.99119854857570        4.49031646372253        3.70110138739797
C           -6.20182245093833        4.44555608811600        2.57417300256060
C           -4.68790673601683        2.41166081175403        0.83608367346759
C           -3.54945727227405        1.64529334033268        0.81282965816462
H           -0.02055747684772       -1.95728323367510        0.01127949885606
H            3.51630425309306        0.70784949235530       -1.30356096344725
H            5.59386865230798        2.00787378403434       -1.26857336791145
H            8.73086144456694        4.23330772932650        0.04707506646684
H           10.16783869374474        4.33077362295049       -1.94708843555173
H            9.15485494332286        4.43162501011761       -4.18507753757221
H            6.70809141024140        4.44776581440294       -4.42571488719207
H            5.27760155231406        4.36869804036545       -2.42689829370919
H            7.13442216386211        6.67042783423563        0.19907239031707
H            7.80100234080273        7.93357246000291        2.20213842588750
H            7.49677960631593        6.94532570364569        4.43297094097021
H            6.53726707126907        4.69291050217963        4.65764030485144
H            5.88657027198710        3.43002660831000        2.64985547428007
H            3.84897586679176        4.72880594905354        1.49238052016150
H            1.78920189862416        3.40129721479345        1.50491746826006
H            0.03586285682621        2.93580645128211        0.07976641350521
H           -1.70875121590287        3.48345530463096       -1.32697380926380
H           -3.73063818294706        4.86576441499742       -1.25792799890406
H           -6.93631046478580        6.86323448712189        0.16322580999073
H           -7.56839961851096        8.24242831919809       -1.77307385998295
H           -7.30773011801354        7.35230492475209       -4.05026484815002
H           -6.42725757220319        5.08178430570374       -4.38777204531837
H           -5.81142991316390        3.70278496861216       -2.44648609756430
H           -8.61237989724748        4.45589235136973        0.22466440401117
H          -10.02408128129819        4.54160030775563        2.23752203970452
H           -8.98377927110226        4.55917232448301        4.46515976632845
H           -6.53494397839058        4.50098720684684        4.67736558662047
H           -5.12946173743794        4.43219187589777        2.66042132971511
H           -5.53338564210516        2.10724638651478        1.42748179293105
H           -3.49297696221962        0.74906750101393        1.40519450110080
