106
 energy: -25.060477956324 gnorm: 0.000662443366 xtb: 6.5.0 (97a52f5)
N           -3.38593628484549       -1.44896487184868       -0.02721284054461
C           -2.40888730119546       -0.82320182576658        0.02159878560559
C           -1.21596751542917       -0.08944805609860        0.06578569396054
C           -0.00253506378998       -0.75839402248176        0.09665768638632
C            1.20835956681672       -0.08354555831953        0.10619382903263
C            2.39840390569793       -0.82020263700822        0.16718504133359
N            3.36930178631746       -1.45515225041659        0.21907043507921
C            1.20488412054947        1.32270695526247        0.07211894811440
N            2.42677708285943        2.07929895367973        0.05699737279204
C            2.78001299303535        3.09160096710083        0.96968479818053
C            2.11959763019919        3.56702925198582        2.10138314778200
C            2.70212211662242        4.57293332359634        2.83162027570063
C            3.93403785173611        5.11512508994895        2.45541217765847
C            4.59745771636484        4.65566817744356        1.34525054825845
C            4.02127579147652        3.63074682077147        0.59158462413429
C            4.44927833699577        2.93358520575737       -0.59604873097190
C            5.60653331375607        3.04333044693250       -1.40099981663546
C            6.70756340304587        3.97720538393806       -1.07695119605187
C            7.01001526936947        5.04113612044940       -1.91923876385899
C            8.05775661045001        5.91696311715066       -1.65143477270323
C            8.84516122651909        5.75893580422638       -0.53700524378285
C            8.57358579427975        4.70314047048729        0.32906282113274
C            7.51808849414005        3.81287789213449        0.07082234361918
C            7.51097197444341        2.84351141688248        1.14008584101922
C            6.69079470910367        1.74883302120128        1.42267911389347
C            6.92417574197125        1.02012946331534        2.56203755655071
C            7.96350805183985        1.35920022523194        3.43178443571966
C            8.78159417658261        2.42924241941177        3.16975694779645
C            8.56049581370395        3.17544555425201        2.01355662250735
N            9.22781757806777        4.30870668444048        1.51259677655051
C           10.38877501655110        4.93914553308451        2.07841276794752
C           10.34085281534272        6.28227595821136        2.41073757605182
C           11.43454717530202        6.94204498944899        2.94517655732012
N           11.33604281787984        8.34418475049449        3.24495372228564
C           12.08433294759923        9.37947904912284        2.64894150737946
C           13.09549450240837        9.33742915262530        1.69078131968778
C           13.65218761807412       10.51849680721497        1.26700901615642
C           13.21565037595632       11.74410509541555        1.77714291739429
C           12.21407460110482       11.80352413368687        2.71577433003042
C           11.63905767766927       10.61099780319017        3.15699357819573
C           10.57576550151356       10.32924364217659        4.09213080708146
C            9.77065329767642       11.15323836659099        4.87952129544974
C            8.81722198195445       10.57171873444960        5.67986745089823
C            8.65050192072281        9.18440251989696        5.70967702520991
C            9.43368502659759        8.36087109875423        4.93947478404163
C           10.40445483777407        8.93539049771785        4.12113858043303
C           12.62282802840232        6.22622360889552        3.17466641372915
C           13.74283847151007        6.83463715078117        3.75663402761095
N           14.67714567537246        7.31907458428611        4.24745226172912
C           12.67301081464561        4.88404984650316        2.83231067842553
C           11.58454469998036        4.22633674402912        2.28054644514065
C           11.71044342098578        2.88086924558083        1.91003182046891
N           11.83897533620500        1.76795410632399        1.60429595635548
C            5.67919606575109        2.22190647484753       -2.52033744393152
C            4.67064683315154        1.31638040146513       -2.83497574254544
C            3.55636050037112        1.19446251388198       -2.04117642607618
C            3.44808827472584        2.00003515918808       -0.91072052090620
C           -0.00715119520351        1.99176289318663        0.05192483912230
C           -1.21588395510218        1.31646748975324        0.05430099470825
N           -2.44277510071688        2.06470194970400        0.04094247927538
C           -3.43765708739064        2.05754955424661        1.03938128827290
C           -3.52257916823387        1.34814123928411        2.23596306243486
C           -4.61595800812391        1.54391191514413        3.04255057901578
C           -5.62623969113850        2.43924653694711        2.68112525630605
C           -5.55373966316200        3.15247740502620        1.50907254333892
C           -4.44861486203982        2.96346273674685        0.67821640678517
C           -4.06354098440688        3.55551302241856       -0.58100698073726
C           -4.67039551062673        4.51026396900750       -1.39795221746431
C           -4.03738958578487        4.88087795273577       -2.55972186517375
C           -2.81064328916505        4.31800879289445       -2.92247563245891
C           -2.20034911799792        3.37914394391573       -2.12819116954873
C           -2.82868174689652        2.99400470834846       -0.94533949991106
H           -0.00024111559207       -1.83399952288184        0.11221076746410
H            1.17459269370448        3.14079156665643        2.38682301248936
H            2.20319343804668        4.95044314865378        3.70889456482235
H            4.36969720776593        5.90301518522630        3.04745117930082
H            5.54889960223051        5.06274271218136        1.05644552398850
H            6.40877757658242        5.18361002011529       -2.80039102499659
H            8.25679436457142        6.72883564691200       -2.33138460715683
H            9.66211640815424        6.42579455610746       -0.32749968807209
H            5.88257457034263        1.50038942977533        0.76065567920895
H            6.29463722503923        0.17733990642938        2.79392383294157
H            8.12493799521837        0.77095386848444        4.32004863364273
H            9.58539762090170        2.69823432899584        3.83141037421295
H            9.43219856801091        6.82932205300979        2.24479454039334
H           13.42530390661945        8.38930547856947        1.30547988537175
H           14.43839278920614       10.50119476332855        0.53031938146237
H           13.67041200894875       12.65580574572931        1.42633964496109
H           11.86875370876044       12.74352036734228        3.10810286968289
H            9.90355826487990       12.22014431148042        4.85067043828373
H            8.18796916825339       11.19389697134347        6.29465208984722
H            7.89572946689460        8.75548490112310        6.34796381279809
H            9.31583147878241        7.29219672082789        4.95856082612287
H           13.58497402600080        4.33756290833399        2.99616913052254
H            6.55036730018877        2.28863871577258       -3.14872455388134
H            4.76892212278597        0.69657374685847       -3.71091733774713
H            2.77582862493202        0.49204569412379       -2.27217769455405
H           -0.01045636286275        3.06508373492938        0.03168507999447
H           -2.74156871542691        0.65919980394844        2.50361781789311
H           -4.69790169275821        0.99829741753849        3.96813553012782
H           -6.47363344615710        2.57269717519398        3.33317762860374
H           -6.32514265026533        3.84685485748064        1.22702760135896
H           -5.61441684080895        4.93931767415772       -1.11245185885904
H           -4.49320379111812        5.61618615676077       -3.20209133407281
H           -2.33758809329080        4.62607990521649       -3.84029613571411
H           -1.25848958842269        2.93766442936476       -2.40078085819740
