106
 energy: -21.178424153626 gnorm: 0.000595708866 xtb: 6.5.0 (97a52f5)
N           -2.78987762882966       -1.23957343884379       -0.66658462690012
C           -1.77695112564945       -0.67460299137161       -0.72567285268052
C           -0.54427407854108       -0.01335061428792       -0.80578731682871
C            0.60566590501139       -0.73072512508663       -1.09682994376377
C            1.84493701607671       -0.11845486980659       -1.20615542052143
C            2.97310826911489       -0.89929694220016       -1.48792560508930
N            3.88993635396079       -1.57263828513852       -1.72151101295688
C            1.93568135034153        1.27246643576116       -1.01958122303890
N            3.19276636236692        1.97101437268219       -1.10285379460218
C            3.75703644740333        2.68235628710355       -0.03529788361133
C            3.38263007738515        2.77595213044535        1.30387350105458
C            4.13434500069086        3.55960074468406        2.14356077881726
C            5.24993573761193        4.25523264535534        1.66932304296680
C            5.62745999054533        4.17021375755470        0.35147060788731
C            4.87626489529809        3.37018590292528       -0.51360214953924
C            5.02536948463002        3.07496323712403       -1.91909890977330
C            6.04940244645014        3.59564446448855       -2.67075972125859
C            6.42561119668362        3.37977176373430       -3.97161988901137
C            7.24580341388118        4.13901489539493       -4.68069024189946
C            7.65773687959758        3.92034845811316       -5.95293092384467
C            8.49764321896485        4.73589035561606       -6.68357674271786
C            9.07258437423539        5.90587289161372       -6.28047965047320
C            8.99877936820317        6.53819853093629       -5.11148156943439
C            9.64967719971354        7.68376517478848       -5.02919602441113
C            7.48057759316967        1.00867225418695       -0.13567369874451
C            6.91866681178971        0.96156623382051        1.03156252986865
C            7.06630820231792       -0.04669813002363        1.98701009761441
C            7.82901223358063       -1.19231633278225        1.93248308441261
C            8.67242566132055       -1.60629990467564        0.95308206310496
C            9.10046625254149       -0.95639670546144       -0.10754200499761
N            9.70467565304319       -1.43487190354139       -1.10915082961427
C           10.16359385395349       -0.74399621557278       -2.10141172430447
C           10.15823557953892        0.56885329555173       -2.25235074937047
C           10.60770731757304        1.21535989226781       -3.33059826522886
N           10.94820878650740        2.41752165412505       -3.41462858875171
C           11.30404243187722        2.98941747698068       -4.53697727944402
C           11.29345845666299        2.40743729548161       -5.74760859297126
C           11.63830533950722        2.95318553946733       -6.98988162756360
C           12.12678002425697        4.19828792027705       -7.33215186210339
C           12.47913268610281        5.25251760267606       -6.54621980663296
C           12.51396519615378        5.41691785756133       -5.19754288387693
C           12.91820707422482        6.50825836021227       -4.53794278344433
C           13.35988050625743        7.65522537440483       -5.07294941152660
C           13.78752352993932        8.79128216824055       -4.37703558532774
C           13.84280888335550        8.97731891703572       -3.01387190364320
C           13.49101677653213        8.09534922117666       -2.10357866055852
C           11.06357379091033       11.70106070339212       -7.40244166789114
C           15.66661011137170        0.98421008713001       -4.10660466571502
C           16.69728381106952        0.65828330125578       -3.70849173125595
N           17.39472281312007        5.21097933940768       -5.98101584776818
C           14.26899498192957       -7.91658492664301       -6.24088280627892
C           13.28364935641158       -8.51790879010236       -6.87386601934383
C           12.40660428371631       -9.05374708352028       -7.43914562508233
N           12.61607851628776       -4.86506835583047        0.46023444355528
C            4.19538909654830        1.91018072768067       -4.67028158743015
C            3.57948044509186        1.68519971083886       -3.51375448319137
C            3.95132771686061        2.21266260997563       -2.27182227745284
C            0.78764640507220        1.98973409770965       -0.72849491116337
C           -0.44776653559300        1.37597615017169       -0.61590041022364
N           -1.60745010084704        2.17236215305241       -0.31649547102235
C           -2.34716837005881        2.15366983849938        0.88238891242885
C           -2.18657439849323        1.39319487109474        2.03876124262542
C           -3.05632875358294        1.59026844932794        3.08252744659884
C           -4.08188513477053        2.53593347017523        2.99652274337777
C           -4.24860967769729        3.29884499774151        1.86595645978772
C           -3.37260306092303        3.10970637672547        0.79619675482228
C           -3.25926707743711        3.74443968294031       -0.49601306201620
C           -3.99403419998655        4.75434914237814       -1.11871827272674
C           -3.62628370754070        5.15383190652402       -2.38098549860187
C           -2.53959290027503        4.56605391921685       -3.03463590902288
C           -1.80636748251171        3.57230530079932       -2.43479830254958
C           -2.16646620186325        3.15715609348111       -1.15426683989598
H            0.53428093745403       -1.79421805032932       -1.24264960959034
H            2.52259333681658        2.23568278016682        1.65726043996781
H            3.85959728661962        3.64251288754743        3.18224804817801
H            5.82133723043150        4.86664278773077        2.34825407788641
H            6.48521596465358        4.70125293556587       -0.02152032931138
H           10.27410643286849        5.98677565385114       -0.62034048141486
H            7.28734215828061        3.02694826982525       -6.43055958017848
H            8.73023309638131        4.42879550017763       -7.69085146464299
H            4.45457591562286        7.16874196642703       -6.35496476305499
H            6.24628771713731        1.77024957666951        1.27075273070702
H            6.48371143910667        0.08373281408921        2.88793741775523
H            7.74264978022120       -1.86791275513207        2.77047552300972
H           17.41553200966698       -0.46751065891160        2.43410486062088
H           10.21649502720949       11.71216402942021       -2.83418649876835
H           10.95270257855961        1.38238100334425       -5.74437257366514
H           11.48840073323468        2.28349087848040       -7.82525417731462
H           12.26863155426925        4.37470783864168       -8.38816037841879
H           16.96481875024608       10.39052208247501      -12.78880535016322
H           13.38922204294434        7.70136088968284       -6.15022103063512
H           14.11574396102680        9.62115862065298       -4.98505512812952
H           14.20497383540245        9.92603148932591       -2.64916680684614
H           13.92771082142976        0.70951657655733        0.04280143119876
H           18.09463047878597        0.21575390697353       -3.22603640170795
H            3.89652469984925        1.50409832986347       -5.59199665241126
H            2.70906184599395        1.05099389569199       -3.51701573508774
H            0.85803371062812        3.05124903816774       -0.58339740950507
H           -1.39440094289184        0.66799989683959        2.09419814998253
H           -2.94777059672941        1.00704749659608        3.98222022197743
H           -4.74991715408947        2.66984592636819        3.83147416690140
H           -5.03227365127637        4.03227237008701        1.79546789998851
H           -4.82918188300603        5.20262839821178       -0.61023507876777
H           -4.18380756582034        5.93214474267676       -2.87569619079326
H           -2.27433112864875        4.89818294885151       -4.02492919040734
H           -0.97029511052675        3.11166051710188       -2.93018669688351
