54
 energy: -12.623681364949 gnorm: 0.000980752909 xtb: 6.5.0 (97a52f5)
N           -3.36086802323434       -1.50387538078086       -0.11301347396803
C           -2.39271834442083       -0.86474257553430       -0.05990837604026
C           -1.20869181019727       -0.11685412967515       -0.01228104588158
C            0.01328000531691       -0.77106841974910        0.00098488467735
C            1.21504719388279       -0.08033991677888        0.01650445230034
C            2.41978638436195       -0.79429780286001        0.06667641497032
N            3.40544779599402       -1.40570345257628        0.12451411597081
C            1.19178214874527        1.32583556261894        0.00653333172504
N            2.40683333482237        2.09399184223469        0.00287344728583
C            2.79416715911096        3.02990266980188        0.98268957912214
C            2.16491154881767        3.42741363778681        2.16104832139643
C            2.77700295912679        4.37074141774183        2.94883451003148
C            4.00704386043175        4.92568452502432        2.58477978629227
C            4.64063343652522        4.54355477824191        1.42715811609962
C            4.03087882014327        3.58588729487461        0.61557676170336
C            4.41651196437151        2.98317202649540       -0.63798077237461
C            5.52805424515167        3.15595267004907       -1.46402395691230
C            5.60390627688331        2.42897288273815       -2.62733869151082
C            4.59062640039279        1.53518004353500       -2.98435534740407
C            3.49134740090273        1.35472987622184       -2.18213272004236
C            3.40276596512887        2.07849504590297       -0.99446732774143
C           -0.02813093562795        1.98102026076965        0.00420863533703
C           -1.22759667261958        1.28917795505514        0.00086390260611
N           -2.46569235985671        2.01967830970510        0.01367985591547
C           -3.44482316300489        1.98485762173472        1.02690696432211
C           -3.49638555807146        1.26479017429983        2.21895871606025
C           -4.58718036113358        1.42162692181790        3.03756603258695
C           -5.62858129384799        2.28717135162614        2.69191501990884
C           -5.58962993345786        3.00966407150170        1.52396508413855
C           -4.48674829557209        2.86140797452925        0.68171276321144
C           -4.13719057336845        3.46517281746009       -0.58196234706243
C           -4.78437945264680        4.40106032871494       -1.38994683920719
C           -4.18107786854473        4.78859576093692       -2.56187854707224
C           -2.94453364672149        4.26063903972521       -2.94366253448376
C           -2.29505290543757        3.33998760778451       -2.15898379630535
C           -2.89301836781341        2.93798591804643       -0.96601824832082
H            0.02939571289297       -1.84660025673523        0.00025838291211
H            1.22043341864311        2.99260548225923        2.43521185308474
H            2.30244965278091        4.68878382368497        3.86246576642249
H            4.46485015779013        5.66391895155169        3.22236716989145
H            5.58730709385692        4.96610127352742        1.14067502732824
H            6.30262898869688        3.84784824645916       -1.18456005486350
H            6.45652057564559        2.54954525872699       -3.27506254145418
H            4.67511270016313        0.97780680629154       -3.90266246442254
H            2.70865723286993        0.66632647061970       -2.44622424300821
H           -0.04462292577829        3.05443366496341        0.00601294506282
H           -2.69259382145746        0.59743622542075        2.47359868691672
H           -4.64285919172236        0.86747561310692        3.96001528866861
H           -6.47394518564893        2.38918892504518        3.35221074196000
H           -6.38633114653565        3.67935995808371        1.25278158665964
H           -5.73598832103062        4.80272261375843       -1.09006656270760
H           -4.66820174898418        5.50990706638683       -3.19708318645146
H           -2.49495767720737        4.58139611665439       -3.86889765704560
H           -1.34553284950892        2.92535505117278       -2.44668741028892
