66
 energy: -15.837315084543 gnorm: 0.000824849571 xtb: 6.5.0 (97a52f5)
N           -3.63562030316793       -1.11532565388006        0.90005306398304
C           -2.61862105354217       -0.59748239609787        0.68974976356043
C           -1.38797355623263        0.02971992289318        0.43099516396536
C           -0.22581180647105       -0.71912553995660        0.30085624004486
C            0.99522631988164       -0.10978886765653        0.04427549254291
C            2.16733361603152       -0.87480135108347       -0.08175640514403
N            3.13843493006974       -1.50190106008099       -0.18455651400804
C            1.04126656158174        1.26948316465129       -0.08164319318863
C           -0.10618734484431        2.03905145029552        0.04561664055540
N           -0.03845016139489        3.46926806136852       -0.07518331906412
C           -0.48217582791518        4.40126645753115        0.88439323203126
C           -1.09495969109707        4.21665275258828        2.12262975483897
C           -1.41597161735648        5.32178365864374        2.87101066092498
C           -1.13345356804021        6.61033399522164        2.41047769988974
C           -0.52127015995579        6.80952609144792        1.19693318357232
C           -0.18858562192661        5.69575550780123        0.42542951096889
C            0.45753173710296        5.55884197580485       -0.85828053656187
C            0.96154809491032        6.49427566172188       -1.75704205279236
C            1.52556479678219        6.05983485786887       -2.94842111832454
C            2.07566246171285        7.03706341586717       -3.91465738222318
C            1.67934186473533        7.00458433936432       -5.26951125646991
C            2.16444834573963        7.90145885050230       -6.18452668706127
C            3.07877641679160        8.86603782996406       -5.76133232015405
C            3.49591472322729        8.90436548900179       -4.42027397280393
C            2.98824660666447        7.99553598152035       -3.49671191750858
C            4.45282249264830        9.97838772936998       -4.29945636523510
C            5.18090898723159       10.47163439210939       -3.21643525029112
C            6.02239062351223       11.53807586472800       -3.42047981450157
C            6.14831616958029       12.12386168057443       -4.68272255933243
C            5.43829962477680       11.64924000452441       -5.75747847445866
C            4.58585783335116       10.56256253875378       -5.56969988718982
N            3.74018330673473        9.88491092372735       -6.47090845398239
C            3.53803394879656       10.22238015231789       -7.85302150744489
C            2.26175818489779       10.47881131205120       -8.33291521162855
C            2.05148601431912       10.81756165996927       -9.66008298527076
C            0.75279034346065       11.07722247696019      -10.13007343428430
N           -0.32008984361843       11.29214587707209      -10.51661255939201
C            3.14422849153224       10.89755676427083      -10.51313951988825
C            4.43090904502983       10.64448663606403      -10.05618579099366
C            5.53050395147936       10.72617902191485      -10.92759526665373
N            6.43974893366291       10.79251901001754      -11.64577400857388
C            4.61441856691043       10.30817774306749       -8.72421879994364
C            1.57480774008954        4.67617341646313       -3.22554455547269
C            1.09019803910354        3.74636966621781       -2.34388927833496
C            0.53046621614759        4.18516757442452       -1.14407963530044
C           -1.31481001345763        1.40767491305207        0.30142898569710
H           -0.27223816457245       -1.78913574677187        0.40053843805220
H            1.98220975957209        1.75455660380208       -0.26685681980696
H           -1.30010178987666        3.22187939049919        2.47531036058597
H           -1.89265113299418        5.19511388613975        3.82920733396080
H           -1.39838824133548        7.45971866487020        3.01838656167017
H           -0.29701896560639        7.79838819292987        0.83803893980756
H            0.90248983569810        7.54335300989724       -1.53410021257409
H            0.96734588695336        6.25872011857723       -5.57792541828616
H            1.86125016069420        7.86978861559827       -7.21564406319252
H            3.31168470543456        8.02868607088767       -2.47299662643924
H            5.07633743136617       10.01820298331131       -2.24666217706325
H            6.59289500313212       11.93078760168529       -2.59496844737089
H            6.81325320717858       12.96191535880857       -4.81293563770107
H            5.52448388299720       12.10001799190313       -6.72975877077415
H            1.42592138620802       10.42565603266101       -7.65951715216890
H            2.99189768325882       11.16023736731910      -11.54502492753120
H            5.60428692977232       10.10047390769832       -8.36092244912755
H            2.01985812094807        4.35412996719728       -4.15106158475622
H            1.12826263061698        2.69407338483297       -2.56144529245997
H           -2.20891274891739        1.99732264519505        0.38992858610326
