16
 energy: -3.749971180719 gnorm: 0.000631802493 xtb: 6.5.0 (97a52f5)
N            1.20424139125313       -0.02382399911837        0.06968485998735
C            2.36451048863417       -0.00121950715408        0.08042574249126
C            3.76922302971660        0.02643047204330        0.09165889037483
C            4.44710135015299        1.23393528810039        0.10778808602898
C            5.84102866021952        1.28073241966323        0.11744565544305
N            6.51034974596180        2.49487923440386        0.13855855436582
C            6.54608440733394        0.07734882285933        0.11061246349329
C            5.88763089692626       -1.14082275578816        0.09440143190527
C            6.61467167559302       -2.34312807950781        0.08759819208047
N            7.21604660822274       -3.33568609464854        0.07990892514914
C            4.49870266807990       -1.15563279834516        0.08508244067529
H            3.88713982728431        2.15134322565733        0.11620876803995
H            6.03868139591179        3.37271305735772        0.01560810404263
H            7.50523613793692        2.56399736068142        0.02396171866624
H            7.62075133824983        0.09368648579409        0.12538769366971
H            3.97923037852307       -2.09814313199856        0.06944847358674
