56
 energy: -12.859946588256 gnorm: 0.000682648823 xtb: 6.5.0 (97a52f5)
N           -2.09133571380412        1.76907420538003       -0.15328930032804
C           -1.10091593798856        1.16746799275831       -0.06628874774417
C            0.10272835202371        0.45985191818600        0.03377904129865
C            1.29815333931989        1.14297769568068       -0.13962623867654
C            2.52530280916089        0.50478356992178       -0.04718628264649
N            3.75532684012813        1.23806711658056       -0.21647706041340
C            4.25355252280715        2.07146003213405        0.82670272899915
C            3.42841676736278        2.53560065997688        1.83769148677656
C            3.93136135933935        3.30015327630164        2.87228280517206
C            5.27277795722816        3.60737239140439        2.91103093799611
C            6.11347532529303        3.15103847173561        1.91602543174703
C            5.62754499938551        2.38326607242980        0.86633768313605
O            6.51791418137734        1.93364791088473       -0.10748307543582
C            5.99511367266818        1.24919654129792       -1.20294698987844
C            6.84402169869816        0.88084918337288       -2.23776468298186
C            6.36058787930768        0.22950677613092       -3.35483993746240
C            5.01814838163539       -0.05910967235119       -3.45689672186905
C            4.15879475467811        0.28979517179697       -2.43334608348921
C            4.62724589262220        0.92635629993659       -1.29651743516341
C            2.55758785270424       -0.88554827074990        0.21673251658528
N            3.82069815401221       -1.57605768613830        0.30137309374427
C            4.75532856915713       -1.22060843477859        1.31343755756578
C            4.34101651217692       -0.61202376482278        2.48605555878332
C            5.25645857863408       -0.21746921365177        3.44217119523234
C            6.60084702071733       -0.43075148537150        3.23499163955788
C            7.03196625575020       -1.05295887566410        2.08049347638538
C            6.12739749703348       -1.46744549243650        1.11248047908750
O            6.59954173667928       -2.12078802539910       -0.02428953374801
C            5.66192822929736       -2.61932331667240       -0.92761878097182
C            6.10503065630325       -3.35951885882021       -2.01532204607279
C            5.21475000544119       -3.86187688701325       -2.94281655649985
C            3.86573460320003       -3.62883295675950       -2.79787388419295
C            3.40465361372647       -2.89212294329549       -1.72431880831068
C            4.28032865759317       -2.38318289313095       -0.77959015045033
C            1.36192938224235       -1.56426395213558        0.39447425054233
C            0.13532454430149       -0.92098991422200        0.30856938853947
C           -1.03394681537913       -1.66697545917497        0.49737037953699
N           -1.99152420243953       -2.30585739296060        0.65616466643259
H            1.27447163555565        2.19454712477143       -0.36039399177577
H            2.38369367748576        2.28419152776554        1.81777389634544
H            3.27431429416581        3.65278217320350        3.65005181878025
H            5.66746207002405        4.20238718932645        3.71808778000177
H            7.16397313336997        3.38031179216521        1.93683954283623
H            7.88890149734955        1.11996051540000       -2.15011600742409
H            7.03403619309836       -0.04884637919549       -4.14867763762310
H            4.63894277793215       -0.56277759587767       -4.33057495312415
H            3.11091198971065        0.05749092253236       -2.50402173664357
H            3.29048299021669       -0.43785039946015        2.63798178079931
H            4.91839832931914        0.26376496389052        4.34498599044259
H            7.31713740761720       -0.11566482214424        3.97582500258858
H            8.07880282068379       -1.23218015748592        1.91111505526752
H            7.16165384411907       -3.52994583913378       -2.12037163398728
H            5.57649885281028       -4.43463163281196       -3.78079544447082
H            3.16975358894852       -4.01747030207724       -3.52286395804839
H            2.35263114285073       -2.69802262464307       -1.62150564054886
H            1.38850782235129       -2.61561624657901        0.61597813579860
