55
 energy: -12.354886900666 gnorm: 0.000762699250 xtb: 6.5.0 (97a52f5)
N           -3.10152206198883        0.15342198338196       -0.50078334034221
C           -1.94400282047435        0.13731014788450       -0.40865734182699
C           -0.54477588827781        0.11137237742976       -0.30031916819473
C            0.17719916057672        1.29216049888313       -0.20344462648614
C            1.56632105419690        1.28141693648170       -0.09383262832537
N            2.30769344521931        2.51218457576377        0.02334988505798
C            3.25543924236130        2.88957835344964       -0.97134399161812
C            3.48594040545617        2.10150872550942       -2.08683188585621
C            4.40353952377761        2.47718538812977       -3.04926101926211
C            5.10113876372556        3.65558524517670       -2.90995780203314
C            4.87755046271633        4.46262194090600       -1.81241453052138
C            3.95877279175152        4.10325366159709       -0.83496845013597
O            3.75729146571259        4.96006240276067        0.24701880111833
C            2.84715328942552        4.57329858176227        1.23044202534463
C            2.65797651273001        5.39872529224699        2.33121284752138
C            1.78550552154393        5.04762742235673        3.34190790260623
C            1.09048510925265        3.86178364948687        3.26808875480470
C            1.26151799866303        3.02900504179090        2.17864544522239
C            2.12230652589432        3.36760113763798        1.14767207859845
C            2.22535539618727        0.05838128772343       -0.09382383729963
C            1.52773183016000       -1.13898618369414       -0.19340870229413
N            2.23216392792229       -2.39641113990229       -0.19749830511727
C            2.16864415509703       -3.26501864224872       -1.32553052288017
C            1.42932078519585       -2.93869780785152       -2.45056249200810
C            1.37137877981065       -3.78887839386894       -3.53842053431808
C            2.06161898514847       -4.97952008359788       -3.51785617899244
C            2.81760063464816       -5.31726121571131       -2.41319601573417
C            2.89060337199316       -4.47534104096083       -1.31103128024466
O            3.68433740798655       -4.85353589178840       -0.22819675848797
C            3.74212288654521       -3.99942390850168        0.87289104605785
C            4.51798485760104       -4.36589504561701        1.96491493943123
C            4.58804091904060       -3.56629201228449        3.08814550826243
C            3.87853096297360       -2.38782768425057        3.13752407787772
C            3.10436520065051       -2.00338420859063        2.05945197547800
C            3.03007701745055       -2.78407822699686        0.91758392750578
C            0.13815022939295       -1.09619263645870       -0.28928711713948
H           -0.34081506282264        2.23349791562436       -0.21822796275631
H            2.93480777289811        1.18623266788979       -2.20442733474793
H            4.57259550664479        1.84718719623000       -3.90698838414774
H            5.81849409398118        3.94991821220206       -3.65827175280385
H            5.41118219302670        5.38915595592480       -1.69614906093761
H            3.21389985550417        6.31801222171012        2.38208247402202
H            1.65353384106818        5.69897413569295        4.19017723214342
H            0.41420846946805        3.58187275129486        4.05897025030983
H            0.72615007312960        2.09819612110602        2.12891252973354
H            3.29569869784156        0.03768989812656       -0.01293005981154
H            0.89823540641545       -2.00461135062685       -2.47545464481622
H            0.78500671603844       -3.51978834630646       -4.40153630688722
H            2.01644842028907       -5.64538326010966       -4.36390935590308
H            3.36810237110937       -6.24086156671234       -2.38859642375325
H            5.06060918070419       -5.29329707380477        1.91776335864699
H            5.19426392007486       -3.86759528569675        3.92653164371899
H            3.92578652020797       -1.76506480461959        4.01566375227986
H            2.54281969390722       -1.08800457518895        2.10582981183818
H           -0.41233551957264       -2.01695134075889       -0.35130245188815
