55
 energy: -12.165518535739 gnorm: 0.000562458233 xtb: 6.5.0 (97a52f5)
N           -1.97996173937145        0.16679753640309        3.08794985283552
C           -1.07220568044615        0.12447148481494        2.36521033785548
C            0.02578755578100        0.07930615544024        1.49035570545553
C            0.43926953354900        1.22516540383507        0.82526267384429
C            1.52296840413263        1.20933053266349       -0.04900431075362
N            1.97666631363142        2.39679883837404       -0.70353772045855
C            3.16903017575076        2.36809435367736       -1.50640914094747
C            3.25164526516666        1.58753973832980       -2.65381389294263
C            4.40468305096486        1.57569064182506       -3.41101743788631
C            5.48494219723862        2.34785231741307       -3.03703640378317
C            5.41092190806320        3.13983949406513       -1.90451384923655
C            4.26332984339734        3.15855905901498       -1.13968007786897
S            4.16166751946777        4.17168470612273        0.31219394072877
C            2.45221415336225        4.62732167496834        0.18612646213134
C            2.03547756718541        5.88798251526293        0.55998083766264
C            0.70397029881008        6.24766249531664        0.44764459218194
C           -0.21417387637230        5.34520237983481       -0.04791859851369
C            0.19136150177217        4.08073937999171       -0.42336905763240
C            1.52255546549372        3.69942480020650       -0.29702849580637
C            2.20141992990567        0.01141813122376       -0.22540050763607
C            1.81226579943528       -1.15022512789699        0.42653324820966
N            2.56974009326228       -2.36925427321219        0.25552988406367
C            2.40856448251331       -3.14554602703197       -0.93697918822791
C            1.82872481147026       -2.58100786798520       -2.06853062078829
C            1.69414515423696       -3.30122051278672       -3.23691470268959
C            2.13390399219083       -4.60550980698147       -3.29509544361605
C            2.69826338073661       -5.18893294370006       -2.17517409433333
C            2.83088219063607       -4.47832115418751       -0.99875186660181
S            3.50521556634336       -5.31406286892014        0.40673115210087
C            4.15497202254455       -3.94134028544016        1.31143218990010
C            5.19486783835006       -4.17156526323978        2.19031642901050
C            5.72087080291918       -3.14180973645796        2.94980153632246
C            5.20209982925905       -1.87089565389260        2.83085855600875
C            4.16647982092101       -1.63009652085590        1.95232663738047
C            3.62964944854712       -2.65206342988636        1.17573070221069
C            0.71778238982061       -1.10487127485863        1.28426933773814
H           -0.08315448144095        2.14386403232568        1.01059433790489
H            2.39799280046304        1.00264296925912       -2.94856209810793
H            4.45934413600105        0.96404195472247       -4.29672831777799
H            6.38500585755999        2.33899603160939       -3.62915036022017
H            6.24752530235785        3.74979559470500       -1.60757402088602
H            2.76174452395427        6.58883110035609        0.93598362770855
H            0.38672037741489        7.23528897569852        0.73982262390914
H           -1.24890437315834        5.62959135816107       -0.14756537797927
H           -0.51410378877588        3.38355318913549       -0.84071876744115
H            3.06724422996396       -0.02478156073589       -0.85730842760295
H            1.48612958206649       -1.56317539434920       -2.02666213589331
H            1.24731416043249       -2.84329522351122       -4.10408750003280
H            2.03265369032010       -5.17155804640638       -4.20637830211860
H            3.03244965918094       -6.21280499557451       -2.20525929941321
H            5.58690772850396       -5.17089060167395        2.28281442970973
H            6.53010304458362       -3.33458161405494        3.63475057429338
H            5.60609621502314       -1.06539465789230        3.42197470325074
H            3.76732255853698       -0.63653589787180        1.85255170124149
H            0.41583176633202       -1.99838610540710        1.79893394356843
