31
 energy: -7.042453432167 gnorm: 0.000539398472 xtb: 6.5.0 (97a52f5)
N            1.20094713125848        0.11441582073056        0.08644193783597
C            2.36198031173572        0.09574110304061        0.07973724689026
C            3.76342983925113        0.06018341491816        0.07692635208411
C            4.45955044538124        1.21829906576370       -0.08432740520848
C            5.87395778177601        1.24767972768005       -0.02344315828408
C            6.56980849191396        2.47098506584779       -0.07571571444807
C            7.91731974697864        2.51633862442447        0.11883385088832
C            8.62633785769115        1.34972319876610        0.41328116044006
F            9.95474778965526        1.40823909087676        0.67711795091370
C            7.96914030171120        0.14841584030482        0.44610111952198
C            6.59260894462788        0.04240033920621        0.16612866141787
C            5.87429276089926       -1.21795691077869        0.15587749356612
C            4.46938725773136       -1.18226699986581        0.22404992266830
C            3.74211821813591       -2.38248353512645        0.44055335166220
C            4.36325514605017       -3.57643278330913        0.54570204096310
C            5.76549864721850       -3.68173725168211        0.35079056645993
C            6.39880220789294       -4.93937331357178        0.34923095215930
C            7.71806621814567       -5.05657813814129        0.02491226431939
C            8.44552199447423       -3.92727415275334       -0.34183313089128
C            7.86058301686571       -2.69319489397433       -0.32797682879113
C            6.52241225785817       -2.51498234819176        0.08247756860100
H            3.92093858256292        2.14106204630158       -0.20755096032462
H            6.01868161154465        3.37851818968217       -0.25326204085628
H            8.45198748891633        3.44920972837018        0.08620130012731
H            8.52029430209262       -0.70315099758740        0.79615601565688
H            2.67211453741545       -2.32271906525867        0.53549885472572
H            3.79355505792154       -4.47180464647795        0.72571398802572
H            5.82076125098103       -5.81553675791468        0.58821145776308
H            8.19096871206328       -6.02502698944016        0.01990406991603
H            9.47185973810910       -4.03301212556946       -0.65378160374807
H            8.40936235114040       -1.85670034627013       -0.72080728405434
