82
 energy: -18.427157172471 gnorm: 0.000758824668 xtb: 6.5.0 (97a52f5)
N            2.41412298340100        2.26191699419059       -3.80233327967545
C            2.93339256901907        2.14709590656217       -2.76820256737016
C            3.57192308000361        2.01864199432679       -1.52683504951054
C            4.73137125173378        1.31379480176628       -1.58647037713350
C            5.78732355789561        1.01090883287922       -0.63010511194566
C            6.65397735418887       -0.03350232825237       -0.96864843140318
C            7.80396318989985       -0.26436074023063       -0.26209649770030
C            8.14992538955016        0.53402563834083        0.82653491126161
C            7.25792990751163        1.53791913514399        1.21538039087652
C            6.11044936721128        1.78371267013469        0.49148729947726
C            9.46704278740821        0.28746849021420        1.47997249437488
C            9.50042905607384       -0.40630942114387        2.67482841645495
C           10.67906200139185       -0.97668968389843        3.15344435552988
C           11.82553291981931       -0.90880311094491        2.41933912049630
C           11.86127571019192       -0.19933459382517        1.19884551867317
C           13.03080524322770       -0.16055459548357        0.40760904611604
C           13.07431653849143        0.57409471948152       -0.73988162231873
C           11.98480140710753        1.35773834654252       -1.11658963992802
C           10.81850278116520        1.36958058142723       -0.37621540634803
C            9.83601656032632        2.46940972214165       -0.57352621409912
C            8.91838919570929        2.51155194309442       -1.62577185633464
C            7.89809114246875        3.43672982690504       -1.62605351091421
C            7.75781466110311        4.36560911238355       -0.58410563890896
C            8.75918174414202        4.38850152924069        0.39280863089114
C            9.76696633081698        3.46292462896259        0.40185568182219
C            6.50175479300743        5.08147549818908       -0.41034690009364
C            6.17966439003517        5.93191335551839        0.60662707014296
C            7.12200507611869        6.45470930296158        1.50204789324601
N            7.89837820012824        6.88340484752015        2.25325071274382
C            4.76169340071463        6.17449510283861        0.96447358346491
C            3.79757232798705        6.57271444752898        0.03709032436725
C            2.48768042845368        6.74757299987954        0.42042880726692
C            2.08574345883749        6.48961877412856        1.73329096467273
C            3.05294950170972        6.10414602020509        2.65894581811093
C            4.36159922573887        5.95747990628661        2.28354774173975
C            0.67809273797850        6.62990570241109        2.18220399803883
C            0.09723504835477        7.88207237486424        2.14728424752878
C           -1.10564635384526        8.14708400647525        2.79780683509205
C           -1.71726516291830        7.17471144040521        3.52912851939210
C           -1.18127054430777        5.86938395165537        3.58826833769268
C           -1.79018984159912        4.87608815741776        4.38550347537319
C           -1.30077750524465        3.60583237921598        4.40845787667329
C           -0.22763140193680        3.25242351734037        3.59323851276757
C            0.40155257504890        4.17358814470346        2.77835777206490
C            1.31446531767514        3.66632877456373        1.72406851522177
C            1.10772772738560        4.05204039785285        0.40210449937003
C            1.88103437801488        3.54694786894478       -0.60921642287108
C            2.88115955659176        2.60399855748273       -0.36588233963552
C            3.06306251962210        2.18647153205071        0.95391161862527
C            2.30657242122599        2.71553215967449        1.97693540277401
C           -0.01707751550285        5.55219593292818        2.83849766467468
C           10.70181254174187        0.49159313764686        0.76133637028746
H            4.94249670914027        0.91709034890239       -2.56885571380753
H            6.42889784222356       -0.63951856416053       -1.82984902873724
H            8.47597469681308       -1.05045909097136       -0.56117207694453
H            7.51299017982870        2.16021701252357        2.05530235767659
H            5.49961241034621        2.63445034125779        0.73560199653946
H            8.57712698965037       -0.56769658196827        3.20473278539666
H           10.66874979483925       -1.51730028952686        4.08558910419242
H           12.72250737322240       -1.39099528491844        2.76782534648707
H           13.89103207049823       -0.72583537026093        0.72220329973826
H           13.97272993641839        0.59007034624755       -1.33477462947723
H           12.07084202717729        2.02320868158412       -1.95862018008856
H            8.97423286304341        1.76184486339085       -2.39566341338993
H            7.14579608481003        3.40125409605416       -2.39529578266488
H            8.70802383176933        5.09411633618443        1.19823022531695
H           10.48727487224561        3.45271225723998        1.20214714262198
H            5.69227765758462        4.75355974529487       -1.03918607572233
H            4.09370868204568        6.74955182150729       -0.98216896496120
H            1.74925582589006        7.05767675553125       -0.29833324265822
H            2.75454954442925        5.91667682113782        3.67606994538243
H            5.09763462888991        5.64681513718220        3.00437998638661
H            0.62397908115221        8.68289328018370        1.65690254771278
H           -1.52812826002778        9.13763456819354        2.75682272515315
H           -2.62387839328772        7.39065912632315        4.06767822645760
H           -2.64712955303878        5.13867489997523        4.98161848892835
H           -1.77224969900653        2.85774761622315        5.02445457761472
H            0.07770640649080        2.22137038662633        3.54180010271431
H            0.31981725937440        4.75174021120163        0.18226525421166
H            1.69682625003308        3.85724229600109       -1.62238802717083
H            3.76698960061491        1.40117539665724        1.16265621392277
H            2.46201925608452        2.38329414572265        2.98860524806569
