27
 energy: -6.275362978096 gnorm: 0.000281803660 xtb: 6.5.0 (97a52f5)
N            1.07717943319565        0.03310499100355        0.06148209301976
C            2.23757440489707       -0.00080625163604        0.06217656717955
C            3.64232103411500       -0.04448051606367        0.06453312950684
C            4.30368213739176       -1.26586294912647        0.06569169060170
C            5.69473977886886       -1.33698582432594        0.06831687548461
C            6.39736616314646       -2.58421137220300        0.06979629031895
C            7.74703748610278       -2.62750599851243        0.07259691740994
C            8.52868827874886       -1.42800818047795        0.07414437143017
C            9.92334396519039       -1.44461777928728        0.07690830050304
C           10.64272771086011       -0.26760548525930        0.07812434261793
C            9.99982000203048        0.95286525171107        0.07673095746229
C            8.60695823118471        1.02526273129919        0.07401883498635
C            7.90326274174830        2.27208781449869        0.07246505481433
C            6.55356524350723        2.31480808339140        0.06978583558576
C            5.77277199763693        1.11495487592314        0.06839094817524
C            4.37998679900899        1.13238154782674        0.06582070322075
C            6.43917329966357       -0.13347695131150        0.06975498311984
C            7.86277385934371       -0.17887986386080        0.07267675287718
H            3.72747311167506       -2.17351143514684        0.06464567230904
H            5.82605465098440       -3.49613189549056        0.06864317191337
H            8.25846317554100       -3.57428885038988        0.07370198532483
H           10.43561771738707       -2.39112277041811        0.07801994394534
H           11.71980155422627       -0.30208800999796        0.08018361226283
H           10.57135874839750        1.86480654338110        0.07770554752635
H            8.47406067661517        3.18433902605878        0.07346981372358
H            6.04149208825273        3.26123974849830        0.06866853672770
H            3.86244571027992        2.07473351991576        0.06490706795275
