19
 energy: -4.274902785254 gnorm: 0.000518505158 xtb: 6.5.0 (97a52f5)
N            1.15982685967532       -0.04589926949361        0.07027061562195
C            2.31999270931372       -0.07351486233715        0.01673579714172
C            3.71536183639767       -0.08413587677408       -0.04771628741755
C            4.40382542764379        1.07838919503331       -0.06923779067281
C            5.82551563567636        1.08746187735897       -0.13691028858536
C            6.56347602951751        2.27331185275421       -0.16492201854858
C            7.93454171584325        2.24230414370642       -0.23244720404009
C            8.60300196877655        1.02833492375403       -0.27388019827688
C            7.89969989630559       -0.14913043800185       -0.24780319225410
C            6.50399431851648       -0.14903920435254       -0.17904938753019
O            5.82726063906026       -1.35527453824491       -0.15471376118797
C            4.44073258956352       -1.34122083618329       -0.09197223575513
N            3.80444949830814       -2.45522334746860       -0.07329197553912
H            3.87075210662314        2.01187016774915       -0.03625349506197
H            6.04416247830046        3.21580103925878       -0.13325433282356
H            8.49351608412183        3.16365803670930       -0.25366617472467
H            9.67953440683582        1.01040929774069       -0.32738412330726
H            8.40830776372669       -1.09669299455775       -0.27991273430656
H            4.31662803579399       -3.28432916665103       -0.10412121273196
