18
 energy: -4.094206828038 gnorm: 0.000815591161 xtb: 6.5.0 (97a52f5)
N           -3.83920786731149       -1.37049787473417       -0.01733529563327
C           -2.76633193644315       -0.92675130322632       -0.01498403287013
C           -1.46756914276737       -0.41426504181101       -0.01149863493667
C           -0.40912831036224       -1.24820162903055       -0.01256902181972
C            0.91842355971949       -0.74184204195204       -0.00536243766205
C            2.04086310758548       -1.57689146978563        0.00085029850192
C            3.30379540300131       -1.04650828642963        0.01210109262527
C            3.48230078517891        0.33090997041220        0.01741029388475
C            2.39857629365707        1.16656669682747        0.01130070596874
C            1.09692611284378        0.65392128678102        0.00000893164703
O            0.02934130308624        1.53199551529563       -0.00385846899946
C           -1.25405853755553        1.03634534342266       -0.00536031369955
O           -2.22542510853236        1.77490135907029       -0.00164816843642
H           -0.57098152433639       -2.31185718503581       -0.01682227966048
H            1.90124130552991       -2.64475785323895       -0.00237622375740
H            4.16241272804036       -1.69877630271817        0.01735360927661
H            4.47936316923696        0.74210346964095        0.02693711622599
H            2.52341865942903        2.23588534651213        0.01588282934490
