84
 energy: -18.939027944868 gnorm: 0.000601779946 xtb: 6.5.0 (97a52f5)
N            1.05628345242331       -0.68259949585048        0.12126850812616
C            2.19351808790933       -0.79329893615148        0.32747406278813
C            3.57361395392956       -0.90919401992844        0.55584609293328
C            4.43658241208478       -0.14964341240945       -0.19159987601802
C            5.83443693776310       -0.21007106609345       -0.02760348990652
N            6.61666533893421        0.56850314588932       -0.80708337925784
C            7.88743067365442        0.41102737123759       -0.56352397335717
C            8.41107546650841       -0.47080171465013        0.40975656423212
N            7.68550677380476       -1.22866536488767        1.18324352584200
C            6.36084782461936       -1.09478415165728        0.95307492117861
C            5.45773073988212       -1.86601029691892        1.71076904135849
C            4.09968347690127       -1.79345287549969        1.53579121786622
C            3.26864661788657       -2.59884439659000        2.33013441901626
N            2.60198937389145       -3.27649164371093        2.99679622186676
C            9.93744315166219       -0.44148829081079        0.46419083427877
C           10.31619143981167        1.01379136164933        0.71545486112634
C           11.07044521874315        1.50816496795123        1.76307571276327
C           11.31256595746357        2.86130567169989        1.84285504912395
C           10.81533356036453        3.74305024138514        0.88236181399506
N           11.08251961318025        5.14842661252696        0.97717721791569
C           12.32661195919063        5.60742981264981        1.52732844566470
C           13.51785503207351        4.94183129632516        1.24969745929496
C           14.70770263878590        5.37840254673228        1.78694515594809
C           14.73046540284269        6.48749320067217        2.60959219703987
C           13.55789377556798        7.16047159337219        2.89165262195700
C           12.36670256221993        6.72603339737097        2.35561562778573
C           10.11130751524010        6.10093520330909        0.51996186108774
C            8.74925814179493        5.87782557816037        0.70511713610193
C            7.82115140129005        6.79249979154027        0.26121785351018
C            8.23532666745204        7.94687753404380       -0.37378237208996
C            9.58269401286964        8.18405866751978       -0.56245361525715
C           10.51267259419119        7.27079048878881       -0.11977068040677
C           10.05618647022771        3.23546703957277       -0.16975854339828
C            9.80389289079787        1.88333126023498       -0.25019054362519
C            8.98077971284953        1.16733603879886       -1.31657387829813
C            9.88904268210027        0.09706359058938       -1.91181245964332
C           10.20583949152552       -0.07812172876882       -3.24592988573675
C           11.03779157264924       -1.11189941376355       -3.61372500484342
C           11.57120445645900       -1.98415366810259       -2.66397168880567
N           12.43462788252407       -3.05662023549003       -3.06358422735374
C           13.31336450556889       -2.89160939876224       -4.18681147847823
C           13.97220632849645       -1.68447405853421       -4.40552337849207
C           14.80831887409428       -1.52709369757212       -5.48771730891413
C           15.00297633297201       -2.57159894718613       -6.37004105081003
C           14.35933190976405       -3.77615828704354       -6.16486684873324
C           13.52264432332003       -3.93614839169200       -5.08353350016273
C           12.42503281407576       -4.29830682759559       -2.34398524160899
C           11.23743907564258       -4.82430863608198       -1.84167877757021
C           11.23381176558588       -6.01434166849838       -1.14966046395167
C           12.41444864538379       -6.70195531184259       -0.94813650809598
C           13.60005688014736       -6.19502150020920       -1.44261502837525
C           13.60642298308121       -5.00494646449513       -2.13436037885541
C           11.24773818059508       -1.79839277770733       -1.32176009950143
C           10.41002436543435       -0.77017708091475       -0.94868289210698
H            4.03957868715032        0.51760591331071       -0.93448782968238
H            5.85573572791856       -2.53461231051718        2.45189520224731
H           10.34125835904289       -1.12587220436844        1.22043619024428
H           11.45635099712056        0.83300162397467        2.50664426073590
H           11.88593090596983        3.25896302100031        2.66154227022770
H           13.49501198815282        4.08409200560542        0.60060544331958
H           15.62266989965859        4.85420851473115        1.56483843451087
H           15.66221823099424        6.82764545580932        3.03084499744130
H           13.57507982835945        8.02574265193678        3.53376278511663
H           11.44843251599969        7.23992003001149        2.57965719859783
H            8.43283258455675        4.98212839219729        1.21021452607117
H            6.76996648151375        6.60785888320901        0.41022586047863
H            7.50796438564767        8.66188316201623       -0.72167977066552
H            9.90640674855155        9.08449340946370       -1.05819132924045
H           11.56326684339487        7.44536546084440       -0.27223886261915
H            9.67480787068116        3.89909108003117       -0.92326972428579
H            8.57129843824054        1.85015517643813       -2.07119759642742
H            9.79616681463059        0.59032651861030       -3.98280988387827
H           11.27908496703500       -1.26646852816094       -4.65056727442768
H           13.82441761590534       -0.87803356660148       -3.70882923152358
H           15.31187273321405       -0.58764221269300       -5.64625775296008
H           15.65664638521640       -2.44681433641028       -7.21764968710022
H           14.51085042263914       -4.59131634666147       -6.85321800815774
H           13.01099256546512       -4.86887399007496       -4.92314831259482
H           10.31899109894834       -4.29010900239805       -2.01096611884912
H           10.30820698915308       -6.41016450834410       -0.76516902796147
H           12.41051490701674       -7.63350226459338       -0.40637357236216
H           14.52169970636904       -6.73099247006698       -1.28576025515239
H           14.52803161171617       -4.60068236313804       -2.51474489234097
H           11.65759977153318       -2.45465984773502       -0.57684988792952
