122
 energy: -23.598896598527 gnorm: 0.000267013864 xtb: 6.5.0 (97a52f5)
C            1.98805923237483       -0.72395576910188        2.47353529976076
C            3.47535723583378       -0.90645360713887        2.11518528072885
C            3.81282327925038       -2.40788490123525        2.19533761663419
C            3.72122575242072       -0.42946252063621        0.67132282220715
C            4.33541665009673       -0.07486926164648        3.08073879960302
C            5.28863759061127       -0.64295595260862        3.91924825630353
C            6.02816539836351        0.13018083224081        4.78861828727144
C            5.83652305547245        1.50783021001452        4.85662491372110
C            6.59268592980351        2.36360641244086        5.80447300817938
C            7.34857090277483        3.39029493298751        5.31550672686768
C            7.99497156427921        4.34142582187082        6.15059988906074
C            8.76552028597288        5.38981309350722        5.60672924012497
C            9.04421657293744        5.44033529038232        4.14781527408291
C           10.34216650042062        5.24782370790865        3.67084349580546
C           10.60870174196284        5.24329254698609        2.32098414750844
C            9.59613249827764        5.43091937175633        1.38681171871831
C            9.85875633585724        5.40615866599506       -0.12775407763741
C           11.34684599793672        5.16009902001878       -0.44731562927835
C            9.03315361430856        4.27479822515781       -0.76901395447073
C            9.44918527906091        6.75862114186744       -0.73964348731301
C            8.30561917008540        5.63620586426667        1.86182872502839
C            8.03002503318757        5.64369281850701        3.21056688281125
C            9.32031783163583        6.37933211507761        6.47980548929842
C           10.01884182235461        7.48835346797347        5.97729811903128
C           10.51078398312128        8.45771629411004        6.81562025674235
C           10.33524672818239        8.35705788174809        8.18277561036010
C            9.66923420563091        7.27147229075604        8.74668127204862
C            9.47837319281903        7.14931169959705       10.17756891507902
C            9.88507946563108        8.23105817432526       11.10883688251864
C           11.21055261948286        8.63853770651288       11.23525499802285
C           11.55075611490810        9.67283233022435       12.08005882577251
C           10.59099302759790       10.33723434141779       12.83468935766249
C           11.00503886451892       11.50630427111787       13.74329556038771
C           12.01915040191211       11.00744375267552       14.78914796640740
C           11.64560661993271       12.61404483411171       12.88584699533635
C            9.79685302911919       12.10892369843244       14.48790610365713
C            9.27189876535825        9.91448583688103       12.72196777696410
C            8.92466415039416        8.88250003167269       11.87896946225387
C            8.83372565915335        6.05156859384374       10.67177114979628
C            8.28780588523086        5.03542842165103        9.84119656956829
C            7.62518130361824        3.91749242626248       10.38918412188260
C            7.60962882712963        3.69609853567466       11.85858257781647
C            8.28668173022875        2.60923123044213       12.41459927413397
C            8.31732623721970        2.41643400548337       13.77618969242294
C            7.67731626296264        3.29237876358399       14.64444067887673
C            7.76125594436754        3.05171838287814       16.16041688547488
C            7.16243505156780        1.67211911991549       16.49335873431036
C            9.23701793312447        3.09469789834554       16.60055534397726
C            6.98698909924827        4.12205972411281       16.95395223120785
C            6.99153386755169        4.36896420792858       14.09108884414398
C            6.95413276826084        4.56871712176597       12.72906715923595
C            7.00887857140432        2.96742317822647        9.51321833568816
C            6.26354217795213        1.88806335766565       10.01320307098290
C            5.63850329565239        1.00415528725557        9.16906809483036
C            5.73758327496246        1.15400752595553        7.79873940106539
C            6.47775593161393        2.19228815663031        7.23842335549608
C            7.11562205316381        3.12325011830294        8.10322958378655
C            7.84889834147873        4.21326337458774        7.56299395298926
C            8.42557092717620        5.16878210193722        8.42833451025238
C            9.14074065678010        6.27023885015402        7.88683588697517
C            4.89441474499370        2.07965857350737        4.00520508498263
C            4.16022227904450        1.30170031380988        3.13880193068792
H            1.35267534062030       -1.31714056941565        1.81617198809338
H            1.68250645587626        0.31737899397733        2.37975968959510
H            1.79768197914959       -1.03737303993948        3.49978733108327
H            3.19232990071812       -2.98023021708890        1.50584578117483
H            3.63543770809500       -2.79700769193376        3.19766960437148
H            4.85399202096624       -2.59079720031836        1.93079452485008
H            3.13526475302004       -1.01441874129341       -0.03734415099378
H            4.77305754853680       -0.53208403246792        0.40546916119327
H            3.44484914881365        0.61675889739589        0.54655833792280
H            5.45592597515465       -1.70516557357905        3.89649532592786
H            6.76658094808248       -0.32522392600593        5.42640669296913
H            7.43125674384914        3.49737947607696        4.25012483828117
H           11.13538072065720        5.08574737498160        4.38081386498055
H           11.62002374525900        5.08425769346235        1.99127161144536
H           11.68079702406858        4.20198277839893       -0.04962434398587
H           11.97393603462040        5.94718868045841       -0.02912836088952
H           11.51341584678612        5.14450429740588       -1.52432094586408
H            9.29672526949445        3.31119046565020       -0.33344823305507
H            9.21420211315158        4.22011361151779       -1.84231786004735
H            7.96536859545424        4.42899184531551       -0.61905458332000
H           10.01047440356301        7.57340406738032       -0.28274326040689
H            8.38868421592320        6.95676693986698       -0.58972149678467
H            9.64270224909696        6.77551043535791       -1.81205782196012
H            7.50452624625680        5.78751680968786        1.15915337940510
H            7.02425995388607        5.80606941605264        3.55894833495058
H           10.15172090932783        7.58262129463741        4.91382769964913
H           11.03449864077832        9.30592641596322        6.40514269029029
H           10.71434871254147        9.13136134539375        8.82555403526943
H           11.96900770502693        8.13353643106546       10.66161328785077
H           12.58061092355627        9.97674415844501       12.15358124218195
H           12.92075325974847       10.62212542226156       14.31478357099131
H           11.58888654589730       10.20758694453593       15.39145827631225
H           12.31473261091929       11.81357025410504       15.46040535715950
H           12.54109939948067       12.25571673499367       12.37977698391322
H           11.92951892499759       13.46802880401524       13.50052558621960
H           10.94808355556889       12.96350057972208       12.12482677831516
H            9.31731415931501       11.36600646180690       15.12485941492242
H            9.05674453466442       12.49543933372014       13.78750628008389
H           10.10902709950005       12.93609222345840       15.12527503961762
H            8.50150490341838       10.40035973559415       13.29398744448675
H            7.89607735845778        8.57529709220639       11.79379641844270
H            8.70996340424687        5.97156573410117       11.73551717182615
H            8.80108142474872        1.92807220902512       11.75818525647965
H            8.85460867584051        1.57464355144933       14.17767806591415
H            7.71211183720868        0.87142763349305       16.00014117365620
H            6.12367747950100        1.61450935959445       16.16892047483054
H            7.19203221568245        1.48301815827493       17.56627423854475
H            9.82058273326053        2.31822919456091       16.10747860738856
H            9.32783377917665        2.94613555967013       17.67637827343561
H            9.68466283305163        4.05721329628650       16.35382583042665
H            5.93024835504547        4.11995270808389       16.68783318117412
H            7.39030542673416        5.11712377439988       16.76740864820183
H            7.05727162862832        3.93440702332326       18.02532634041322
H            6.48117749736364        5.06483055822393       14.73302364749986
H            6.41535309012562        5.40529244466561       12.31765670134104
H            6.17010066237789        1.76792387694984       11.07823926047084
H            5.06275638771310        0.18921649346821        9.57725134632426
H            5.23120567238762        0.46153100223224        7.15026910493064
H            4.73731378986989        3.14424344195617        4.04414458727928
H            3.43173565534141        1.76863601747375        2.49867527732461
