53
 energy: -11.107602870457 gnorm: 0.000579101672 xtb: 6.5.0 (97a52f5)
N           -3.11192502434262        0.77908870135629       -0.15781689876278
C           -1.95897137143559        0.64561801006339       -0.11916006775384
C           -0.56503389497699        0.48647451671108       -0.07307012035970
C            0.20899729936192        1.26506420745796        0.77984982123258
C            1.57452106611127        1.10953947238163        0.82300267608997
C            2.21978118185488        0.17690879867601        0.01462008263237
C            3.68510980517317        0.04427647891589        0.09753218629104
C            4.40362382438301       -0.59363490623968       -0.89207703873851
C            5.77351006252517       -0.69954418560228       -0.76733338356071
C            6.58621034448389       -1.37910758848518       -1.78834767571773
C            7.90090003782862       -1.73357436172076       -1.48592299562271
C            8.69702077916602       -2.37030694641673       -2.40397236953028
C            8.21280851834108       -2.67839693790986       -3.67785740028199
N            9.02213178008103       -3.33176324263606       -4.61951485064963
C            8.59014153252498       -3.71460726741355       -5.98877894944512
C            9.74512512433769       -4.51622563910751       -6.61326953260784
C           10.98735544491296       -4.19215465847495       -5.75952491110965
C           10.44589322925720       -3.70042065242479       -4.40606348886137
C            6.89888273182401       -2.31541730468847       -3.98658753579875
C            6.10411917997652       -1.68062003132149       -3.06486724875190
N            6.39448520927718       -0.19650380210742        0.29886424397945
C            5.62841340533942        0.41613701406162        1.19956475845143
C            6.31650165090055        0.98715004207793        2.36982960963670
C            5.60268468140185        1.65649976425862        3.35897480761863
C            6.24803354165321        2.19633000344788        4.44936789111946
C            7.61795607923463        2.07512958909808        4.57181136561378
C            8.34056434274592        1.41109094565256        3.60062002635067
C            7.69598086426668        0.87151166181936        2.50966240381076
N            4.30568955815269        0.56723686561352        1.15309997393377
C            1.43824889978927       -0.60813762861328       -0.83376952032070
C            0.07189921900709       -0.45340092488038       -0.87604900883205
H           -0.27644639830909        1.99285195272437        1.40742275425459
H            2.16832110217841        1.71263434613385        1.48726259130842
H            3.90215292931955       -1.00429279489185       -1.74599677675108
H            8.28352719503912       -1.49827222480106       -0.50825504869774
H            9.70432440897845       -2.64140095218381       -2.14293207808547
H            8.38066324084418       -2.80148129754336       -6.55382832700636
H            7.66472374704076       -4.29602734706634       -5.93336412482454
H            9.89337158861047       -4.26496059472974       -7.67089459058284
H            9.52741289142475       -5.59016995770367       -6.57454463886030
H           11.58304076694863       -3.40637966986316       -6.23907079536270
H           11.64844191412770       -5.06028601318634       -5.64548662539562
H           10.99908012959568       -2.83477492901138       -4.02925484982402
H           10.48906404126346       -4.48466511110255       -3.64443059340731
H            6.51064210955317       -2.53351510256600       -4.96543062279221
H            5.10449975162877       -1.39538835062998       -3.33942203537756
H            4.53529301907963        1.74452231461921        3.25815702760354
H            5.68343294244139        2.71472655454329        5.20690464859917
H            8.12297074323856        2.49864929781812        5.42444683979526
H            9.40966069927486        1.31529100316756        3.69632265953882
H            8.25209051165113        0.35386900973786        1.74803014338248
H            1.90403818682421       -1.35785637617473       -1.44775798103263
H           -0.52337462391783       -1.06439375084935       -1.53306442653359
