29
 energy: -6.431948497323 gnorm: 0.000402607871 xtb: 6.5.0 (97a52f5)
N           -3.06292299798906        0.22167716047583       -0.05356523538929
C           -1.90443834960281        0.15446343369705       -0.01229179844460
C           -0.50423090163822        0.07223771168848        0.03930332630115
C            0.22826300119078        0.93532237552437        0.84636560485579
C            1.60053876754494        0.85704025985528        0.89953197019819
C            2.29315342494659       -0.09046190979596        0.14484901282385
C            3.74796843945635       -0.19458565385902        0.18416811236595
C            4.59321761274628        0.51970792270897        0.97765283403227
C            5.97652738172247        0.19564287435737        0.79636793719187
C            6.19224557049304       -0.79187403515034       -0.16211318412688
C            7.48121858960679       -1.24227635535963       -0.47421521662545
C            8.56455565468461       -0.70928747378734        0.17186394437104
C            8.37863676455685        0.28427308218130        1.14282674363606
S            9.57641643804185        1.12060895438701        2.10472595803976
C            8.36979743589669        2.06701156062471        2.91997986478905
C            7.12957605715985        1.76855326630893        2.49036396907618
C            7.10989134245195        0.75137380485258        1.47339302236095
S            4.66077712746041       -1.30137260126834       -0.82543460909335
C            1.55156739632623       -0.95135726063432       -0.66307168176383
C            0.17990875472215       -0.87320991659293       -0.71569740049327
H           -0.29648003105647        1.67066588476834        1.43217929726931
H            2.14733867028124        1.53730917821996        1.52757126258427
H            4.26538703520342        1.25943617001114        1.68737281091561
H            7.60312233122050       -2.00654085714958       -1.22176591106594
H            9.56256730568627       -1.04255100016064       -0.05327555685654
H            8.60479780351154        2.79617963480635        3.67205558571379
H            6.23431524859225        2.24008031241628        2.86342876338832
H            2.07236650753419       -1.68640154968707       -1.25095558893106
H           -0.38040238075016       -1.54499497343830       -1.34333383712368
