41
 energy: -8.197439013823 gnorm: 0.000621650167 xtb: 6.5.0 (97a52f5)
N           -2.65015617560937        0.71161586217190        1.28003283864600
C           -1.56707724878806        0.51004167308170        0.90780224640236
C           -0.26916969820458        0.27646084787644        0.46535730793321
C            0.13949164088526       -0.66707241843680       -0.43003357912018
C            1.53302878074774       -0.66386855283395       -0.67719750524940
C            2.21951035019918        0.28662933201573        0.02775786883403
C            3.64069172661895        0.52142565789535       -0.01363999501705
C            4.56415496596218       -0.21962676050753       -0.70361505570825
C            5.89477011138682        0.22900487740979       -0.54935914557959
C            6.01193271937526        1.31992614428623        0.26509717046629
C            7.24362575899719        2.02197616475553        0.66000769731356
C            7.74866976517515        1.80772787284923        1.88454077880458
C            8.78660537302416        2.67262903123509        2.51065821908891
C            8.78682510263578        4.10265331208955        1.90868353967834
C            7.62972079142954        4.95848379745502        2.39996383746086
C            7.88261458194438        6.22036312333009        2.92000456487921
C            6.85235536886387        7.02816030451442        3.35606229797132
C            5.54814283475952        6.58843277964864        3.27706495716456
C            5.27803480219259        5.34042819228113        2.75860477495085
C            6.30979441309140        4.53676957625905        2.32412267619037
C            8.84634003654303        4.01668994760148        0.36232713624215
C            7.74314036211221        3.12578474953557       -0.24135501315093
S            4.44052768846237        1.82312762157199        0.82840906442049
S            1.10140707848811        1.19557853946630        1.01275301001062
H           -0.54570853375696       -1.35399386946228       -0.90321645378953
H            2.01006644113092       -1.34776857559968       -1.36157752479292
H            4.30070622169743       -1.07988470902590       -1.29850464137097
H            6.74419782703910       -0.24762928064147       -1.01325808574282
H            7.29534248320397        1.03885261898671        2.48780571523945
H            9.77106870453347        2.20759622577298        2.37958525618631
H            8.61904904211249        2.73744482189285        3.59299191550850
H            9.71102131743713        4.60087784777990        2.25014886136978
H            8.89866023980824        6.57120262650163        2.97914115052756
H            7.06749193131479        8.00498857688516        3.75731933852768
H            4.74280979970490        7.21927975110012        3.61622714105010
H            4.26001447694105        4.99362670960861        2.68937021911420
H            6.07704105713455        3.57448430802983        1.91058070039245
H            9.82902932315040        3.63199507472229        0.06294677741667
H            8.78634860222679        5.02851048792864       -0.05769919442741
H            8.08753310729742        2.67724167383956       -1.18120260848722
H            6.88356682872480        3.74738403614761       -0.51939825935822
