31
 energy: -6.008776568383 gnorm: 0.000683144980 xtb: 6.5.0 (97a52f5)
N           -2.34725455558109       -1.53889129317658        1.85327690177421
C           -1.36829379764770       -1.22837208906780        1.30820166861424
C           -0.19954300766082       -0.85350738935029        0.65411078747540
C            0.09104965885898       -1.00549883462908       -0.66903230535665
C            1.36871634338787       -0.52131060579872       -1.03777475569465
C            2.08167460540201        0.01185680698502        0.00070037787611
C            3.40354878109310        0.58056647164128       -0.07239396604127
C            4.18611235364429        0.67215841043428       -1.19172036385574
C            5.43971291897067        1.28626991311639       -0.96916450784732
C            5.64917604758255        1.68180236991519        0.32353692239317
C            6.83836555778801        2.34858272018676        0.83888186808164
C            6.86371601159450        2.77294244559242        2.10926378650539
C            8.01711585416451        3.48166353697557        2.74376134203615
C            8.98632496405670        4.07273610721076        1.70628989557145
C            9.29309977902304        3.04691869118912        0.60715665711915
C            8.00677834903248        2.56696106205105       -0.09146880307284
S            4.25232541348195        1.26898416990481        1.28471344984900
S            1.13745919943981       -0.09470514146368        1.46416076229997
H           -0.59848107756658       -1.45486552065274       -1.36742151037768
H            1.74399410207527       -0.56619630434902       -2.04794546476326
H            3.87353646280378        0.31102686178862       -2.15886813929914
H            6.16088736164831        1.44000416301040       -1.75653049479570
H            5.98822337851056        2.60325192057428        2.71305073915711
H            8.55914526623878        2.77559621222219        3.38521458771449
H            7.64804151438106        4.26994241819921        3.41374794022626
H            9.91225322789790        4.41759577721348        2.18715688224020
H            8.53721985468668        4.96561366737862        1.25464849224002
H            9.80883406039926        2.18683907274318        1.05153469463270
H            9.99785260702664        3.46530184345727       -0.12471779117004
H            8.20372290868809        1.63359249147947       -0.63293655622973
H            7.70948585657478        3.29634004521649       -0.85394309730305
