101
 energy: -22.594818627998 gnorm: 0.000763569218 xtb: 6.5.0 (97a52f5)
N           -2.20282011971618       -0.10574407549011       -1.67900626697747
C           -2.18031476265277       -0.28056444449304       -0.49533891472373
C           -2.15520172991463       -0.47420107046486        0.83733294517911
C           -2.04030103712467        0.63075838935556        1.72330477672299
C           -2.00510554798524        0.41736494034334        3.07348829108367
C           -2.08223901719214       -0.85945460904108        3.53475079536809
C            5.42984272105437       -2.13366868061468       -2.75219078246918
C            6.62425319093455       -2.53126202312424       -3.24965086823608
C            7.76428578689155       -2.08281272672628       -2.63187373460529
C            7.66492816544841       -1.23629541758490       -1.51738079035459
C            6.39556690986706       -0.83752779713983       -1.02198142436798
C            5.26382851728448       -1.32875659437826       -1.69485281759285
C            6.30260218554202        0.04819379967853        0.13928444389513
C            5.07258747924050        0.47258144688269        0.64624422372054
C            4.97306092301480        1.31755876392499        1.74138359671504
C            3.65150977881565        1.74475683188728        2.24673862607314
C            2.56689709103533        0.86712788839647        2.24679187529776
C            1.33604677763805        1.26722971020018        2.70898151158077
C            1.13817191928241        2.55853331254767        3.18654147646474
C           -0.12377594589761        2.96187211719472        3.64815994627392
N           -1.17782709257018        3.27243096369152        4.02629900570762
C            2.21653044855151        3.43675725469329        3.19152541251420
C            3.44991342507212        3.03763883204731        2.73144650990407
C            6.15535319936595        1.75719034196771        2.35420129236096
C            7.37411516449143        1.36084162393253        1.88446871484476
C            7.48163458041763        0.50594249254230        0.78015473349638
C            8.75093763535052        0.08078771069603        0.26674068468393
C            8.84509305231242       -0.75445374586639       -0.85147764258656
N           10.13929451641774       -0.98109929933049       -1.17102735270133
C           10.87059191099407       -0.32147938013417       -0.27282230349517
C           12.32524930828898       -0.31543479878585       -0.30347895433667
C           13.10047559873411        0.13132737622469        0.76854067036611
C           14.47089842192515        0.11282750761289        0.70749014314122
C           15.13507751960585       -0.34697754284333       -0.43347962934721
C           16.60807918832941       -0.35735763910408       -0.50549929835604
C           17.27194256164678       -0.07892938532236       -1.70465843191901
C           18.64150815527987       -0.08257648757159       -1.77221787395460
C           19.41597680702304       -0.37390399608750       -0.64631475127868
N           20.83994689552763       -0.38385599706424       -0.71893900110773
C           21.52411325849203        0.49981624314232       -1.61724467631171
C           21.05610057296719        1.79439280444858       -1.84171970448777
C           21.71819226997548        2.64334979702002       -2.69829653057654
C           22.86076620242127        2.21923653576930       -3.34891011391463
C           23.33914722912906        0.94054239006814       -3.13758125579530
C           22.67995689925113        0.08931911289049       -2.28097718338781
C           21.59874201960496       -1.28531930783994        0.09815620354291
C           21.13630194355149       -2.57500503005195        0.35932709389150
C           21.87104232180565       -3.44245412941652        1.13425297331609
C           23.08205809495316       -3.04186467518715        1.66497148433947
C           23.55573354048874       -1.76815248919916        1.41600312353272
C           22.82395241879578       -0.89848881033480        0.64065327714817
C           18.75449308103666       -0.65742554197795        0.55144830466269
C           17.38489107637040       -0.64476306492534        0.62156157379499
C           14.35880799968334       -0.79680143907733       -1.50552659414379
C           12.98831535106057       -0.78671473552772       -1.43784433169914
N           10.05850240257822        0.35730115232698        0.65015805108211
C           10.46249770074098        1.24094661525066        1.71759576598170
C           10.52121993490634        0.78427274342478        3.02961268247358
C           10.90298764061196        1.63176143424602        4.04505364591803
C           11.23075061489770        2.94397334163004        3.76490382057281
C           11.17607722612977        3.40787645331566        2.46507324370185
C           10.79414364232770        2.56336418880238        1.44722244998446
C           -2.19626509629397       -1.95899998155909        2.74003131394093
C           -2.23302089355210       -1.78460644106333        1.38354057642375
H           -1.96944090531139        1.62679791769294        1.32135722082229
H           -1.87866804676961        1.23541213425547        3.76837105693316
H            6.67072521984228       -3.18394944427509       -4.10924646464725
H            8.73751068598587       -2.37167858617130       -2.98745241363652
H            4.26718908351677       -1.07485039478279       -1.37423598220333
H            4.16565452495605        0.15609859373777        0.16856732087412
H            2.70566305659285       -0.13961078296618        1.89280169608343
H            0.50766473753919        0.58089934610050        2.70513683658826
H            2.07072862675090        4.43822842292216        3.55887201202608
H            4.27042451151680        3.73389078601899        2.72634875322409
H            6.09228234094844        2.40178352215547        3.21358770867931
H            8.26975988483352        1.70524063552633        2.36564850563525
H           12.61334566921586        0.48775924488187        1.65591637978400
H           15.04905591711459        0.47630811618540        1.53908410721970
H           16.69345228198118        0.16022726745344       -2.57986529909889
H           19.13861587355759        0.12417711519091       -2.70356427953681
H           20.17438512222134        2.12557650168508       -1.32168272814321
H           21.34649120233735        3.64182581270495       -2.86058413625248
H           23.37869798286371        2.88514930237493       -4.01944568738907
H           24.22992684978181        0.60902596444030       -3.64555718434676
H           23.04291211901939       -0.91075225149301       -2.12103021815022
H           20.19993158804226       -2.88779158869683       -0.06832367289021
H           21.50277410810760       -4.43704583320711        1.32550303728631
H           23.65650524118914       -3.72232804074422        2.27181941374353
H           24.49973006160680       -1.45496750449820        1.83096032712595
H           23.18419325763999        0.09750072964554        0.45169503971134
H           19.33965556067113       -0.87236831707412        1.42819391240297
H           16.89351157206302       -0.87794812933648        1.55001000189487
H           14.84931517833812       -1.17497642010935       -2.38541155614748
H           12.40100290851408       -1.14181089653212       -2.26636199564813
H           10.26210647095489       -0.23957216322543        3.23569937741714
H           10.94488693156611        1.27114666718162        5.05970217842489
H           11.52920635223582        3.60627515840007        4.56094517344360
H           11.43280251249377        4.43157265480575        2.24730449719325
H           10.74620699114725        2.91293472794920        0.43076361161647
H           -2.25252355255737       -2.94307786247798        3.18371354135596
H           -2.31926395539138       -2.62815516501803        0.72024587802924
