34
 energy: -7.666965785831 gnorm: 0.000745079719 xtb: 6.5.0 (97a52f5)
N           -2.98639099661314        0.10731238200990       -0.08854648954867
C           -1.82553112630356        0.07301258508582       -0.05292871069433
C           -0.42539514132266        0.03023428648441       -0.00860612219222
C            0.28725640182331        0.91026219744657        0.80024627703586
C            1.66057042490543        0.86492063880660        0.84330714120185
C            2.37165012514330       -0.05650230429203        0.07911650868237
C            3.83722191852118       -0.08070702118279        0.14907158999306
C            4.67290380723478       -0.82377351644617       -0.69047911851872
N            5.96848801228859       -0.57126103232662       -0.30727209529778
C            7.32722817034048       -0.76136344550763       -0.45993017927026
C            7.99443093412324       -0.00314124446937        0.50399892286260
C            9.45865228908887        0.07004920860538        0.67021579970380
C           10.02727603750717        0.20395370968043        1.93486820839714
C           11.39486754645178        0.26875792537063        2.08881371294461
C           12.21964920469552        0.20499546275045        0.98367168815820
C           11.67309007739081        0.07418207253423       -0.27701999439547
C           10.30600681683329        0.00606393967847       -0.43379788518088
C            7.05929594539023        0.67593591256342        1.27781740750175
N            5.80592140478812        0.34683627564785        0.79222688056472
N            4.53247174486859        0.63241253756877        1.04582406131432
C            1.65523446810208       -0.93834275077490       -0.72940224113937
C            0.28144922096819       -0.89482829242644       -0.77125810236510
H           -0.25276507205576        1.62836533757723        1.39324667916090
H            2.20773911234023        1.54603517651510        1.47110091842660
H            4.38824670794611       -1.46153216927078       -1.50662774843441
H            7.77535995095079       -1.39561104287942       -1.20238681479250
H            9.38447043031646        0.24395588566925        2.79704697516028
H           11.82110963886840        0.36758380451853        3.07360158278333
H           13.28918762326317        0.25755869875752        1.10500849545499
H           12.31627466414874        0.02728088760704       -1.14047521086903
H            9.87925523083935       -0.08615104207029       -1.41738756670896
H            7.25275700526643        1.35044400983435        2.08996373808310
H            2.18472196793391       -1.66543807231970       -1.31892894561429
H           -0.26508454810854       -1.58059099798014       -1.39596936462343
