74
 energy: -13.881618587007 gnorm: 0.000575143583 xtb: 6.5.0 (97a52f5)
C            0.16815727613120        0.84899553039580       -1.99041395628780
C            1.53239853678786        1.14914856194898       -1.34217528197158
C            2.00258237208694        2.53823729134399       -1.81706774641435
C            1.37976111555787        1.18936954680653        0.19033288735619
C            2.53018501944690        0.04537189930928       -1.72954236504367
C            2.29295549156134       -1.26628080245719       -1.33851577923765
C            3.16002936331087       -2.28276362696319       -1.67633287066486
C            4.30292565540645       -2.02577814756969       -2.42825133745948
C            5.23510376748286       -3.11509916614122       -2.80225122780056
C            5.75591107129355       -3.19835613123361       -4.09013784888417
C            6.62695556739975       -4.20690173821821       -4.45878595607886
C            7.02981009508558       -5.15695617735956       -3.50571281580995
C            6.45464336628528       -5.12742541357451       -2.22438865849012
C            5.58340624302268       -4.10695551915676       -1.89040352883088
C            6.69055196040878       -6.24429608134601       -1.24443780508047
C            8.00872302815523       -7.00841439468916       -1.45961879295090
C            8.42207391303880       -7.13733777229787       -2.90040862526323
C            9.29496696839407       -8.14525459500071       -3.26678203340549
C            9.80352441061359       -8.23865293508491       -4.55871331108462
C           10.73792143559292       -9.32498193242678       -4.93651615453393
C           10.60704926842486       -9.99144839512266       -6.15144678382752
C           11.48108141725909      -10.99685748796374       -6.50382856037273
C           12.52308693826981      -11.37527667133883       -5.66671200001906
C           13.47737265037892      -12.50097108275274       -6.09809802127464
C           12.68430401163308      -13.81403167507730       -6.23246523460198
C           14.11707688140899      -12.14119347361725       -7.45293090417839
C           14.60895002333200      -12.71655725951259       -5.07370804068252
C           12.64902530271309      -10.71242571229994       -4.45147575667148
C           11.77588109032243       -9.70827461969054       -4.09165439204974
C            9.44415569556250       -7.25558805785953       -5.47588856537148
C            8.57734509886582       -6.23136224768596       -5.14206223632026
C            8.01107009678068       -6.19421314354270       -3.85704629026343
C            8.34483363128285       -5.11552995876057       -6.12422211605448
C            7.04066329275691       -4.33002373256801       -5.90004830946774
C            4.54082470944834       -0.71275068884641       -2.82475675650800
C            3.67163189264870        0.30016323857178       -2.48060004095092
H           -0.55920453221853        1.62262504406816       -1.74500483653953
H           -0.23094279801139       -0.10498732786613       -1.64791228358145
H            0.25909887074457        0.80322723365416       -3.07549011403879
H            1.29012882567825        3.30881552674306       -1.52278615647756
H            2.09332257246120        2.57289834930867       -2.90249320587785
H            2.96678037946680        2.79637151932146       -1.37957963134486
H            0.69741900472903        1.98349120749994        0.49301984512007
H            2.34196023105059        1.37093163542688        0.66872909798453
H            0.98584490409366        0.24980993899961        0.57558975347875
H            1.41128237486803       -1.49372382348282       -0.76461669258448
H            2.95016941228127       -3.29358850657060       -1.37088696585230
H            5.44680126122427       -2.47640703626570       -4.82507084958212
H            5.15697868407333       -4.08191515597594       -0.90336390735093
H            5.84651317723305       -6.94159574634710       -1.31428010202045
H            6.64914855944257       -5.83957662456021       -0.22494326584266
H            7.94271977095282       -8.01023154495259       -1.01592439027225
H            8.81814737529098       -6.50375960767681       -0.91773320097593
H            9.59605121422288       -8.87136246810482       -2.53272246684019
H            9.80304090427712       -9.71792245309595       -6.81324577453175
H           11.35239625089666      -11.50136503666732       -7.44580620570800
H           11.90456690729542      -13.72900147744282       -6.98839297594434
H           12.20793836312650      -14.07463018597662       -5.28757759853085
H           13.33833706925815      -14.63748780169400       -6.51865736739793
H           13.36479331450802      -12.03840841196733       -8.23384010992221
H           14.81927265125646      -12.91239704295824       -7.76908221016111
H           14.66004402629460      -11.19875513482176       -7.38427236706508
H           14.21079614381175      -13.01402696645926       -4.10391585571133
H           15.19837949123484      -11.80904928805066       -4.94421204429049
H           15.28534876428256      -13.50429963809249       -5.40545491551643
H           13.44139861937048      -10.98134534844949       -3.77574341699703
H           11.89932214060232       -9.19770807853431       -3.15182265263920
H            9.87899342738957       -7.27655746490645       -6.45945594508640
H            8.36999067359724       -5.52533278354301       -7.14221442164873
H            9.19966632736475       -4.43027438133924       -6.06672464401022
H            6.22230952559637       -4.81406656048283       -6.44738605550320
H            7.12478413623829       -3.32515366943101       -6.33375352708677
H            5.42378085330945       -0.49324090308790       -3.40050562906429
H            3.88887246458406        1.30290258563804       -2.80336969408476
