25
 energy: -5.976100892613 gnorm: 0.000842550288 xtb: 6.5.0 (97a52f5)
N           -2.97233184439325        0.18536139017406       -0.16185286041505
C           -1.81283331122798        0.13188302944795       -0.10960681794255
C           -0.41514023709639        0.06853752013190       -0.04680928462620
C            0.31686129787034        1.10697647267239        0.52059957815529
C            1.68823763932594        1.04319983363024        0.58060382425775
C            2.37869016732427       -0.05666531597799        0.07731999122584
C            3.84291738173542       -0.08498504208480        0.15711045455987
C            4.67034017290803       -1.08833384845711       -0.35536398166845
N            5.96614200196095       -0.72691941780778       -0.07827614116752
C            7.32279960749121       -0.97388562278182       -0.14883870460509
C            7.99846355071607        0.07309329910492        0.47411462060151
C            9.39571557602336        0.18096253946143        0.60201523628836
N           10.54722288326744        0.27021440031612        0.70681359426352
C            7.07440396047386        0.99656216906268        0.94195749724181
N            5.81606440748310        0.52632807456787        0.60764979350048
N            4.54734923296924        0.89126025160485        0.74335749867451
C            1.64220217741072       -1.09630087630297       -0.48987010968639
C            0.27021394406270       -1.03334412931412       -0.55015973856699
H           -0.20673489012511        1.96300197758181        0.91189158127681
H            2.25194816246859        1.84857059682932        1.01904099750015
H            4.38353827862366       -1.97982748330338       -0.88299828919169
H            7.76730511362319       -1.83440761572769       -0.61711921405239
H            7.27950297611283        1.91445517364561        1.46174706088836
H            2.15396946905431       -1.95699140223202       -0.88294443053084
H           -0.29213771937835       -1.83995597698221       -0.98983215734483
