36
 energy: -8.155175172856 gnorm: 0.000833017879 xtb: 6.5.0 (97a52f5)
N           -3.00463372126430       -0.25290317321120        0.29001081641848
C           -1.84568105834860       -0.18117812272291        0.27146025233431
C           -0.44542445947076       -0.09990439585976        0.24430657261092
C            0.19659345655959        1.13333698062071        0.29773423131960
C            1.56810554777499        1.21419093931742        0.26299310701891
C            2.34801995029333        0.06082100249179        0.16343658040468
C            3.81191771415925        0.13982530578354        0.11627966287075
C            4.62289408117558        0.88318556606837        0.97816924292943
N            5.90850187445549        0.66043222285285        0.75054500100420
C            5.95782692013087       -0.21311167386194       -0.26954583743270
C            7.10099702807850       -0.78158238413542       -0.85717204396130
C            6.94151528262261       -1.65064508142197       -1.89286269920466
C            5.66426412988284       -1.94923208334554       -2.38684668450319
C            4.53323806982214       -1.39317781959383       -1.84396799546468
C            3.21348612009460       -1.62380583878180       -2.45722151683322
C            2.42799536380945       -0.54744079965367       -2.86855558594962
C            1.19044526557023       -0.75512048002561       -3.43465108927611
C            0.71606002420248       -2.03991268104583       -3.60737546614845
C            1.48508696266072       -3.11819684017715       -3.21725713794708
C            2.72374846241115       -2.91548902647892       -2.65109384203322
N            4.67677231375307       -0.54590391519527       -0.72976086328810
C            1.69988875042775       -1.17437188148680        0.12999427876045
C            0.32878426642064       -1.25268938158272        0.16521268808181
H           -0.39885604002103        2.02792903908769        0.36419670495011
H            2.05625855525390        2.17273799604523        0.29658674963741
H            4.26198823649498        1.52205794693880        1.77112244351243
H            8.07411663311207       -0.52807100753931       -0.47676335138841
H            7.80643265051090       -2.10019458584256       -2.35242852525816
H            5.56368102105730       -2.59870081730191       -3.23904895265571
H            2.80203325557464        0.45185480044041       -2.72812757384629
H            0.59003001240210        0.08613624147816       -3.73941346788013
H           -0.25505816639663       -2.20107984703671       -4.04622863895932
H            1.11376369487868       -4.12067396915100       -3.35343825582253
H            3.32152541319613       -3.75368082300449       -2.33746320539727
H            2.29347826609134       -2.06989288621389        0.07332858908544
H           -0.16230587737731       -2.21000852645304        0.12799581231347
