40
 energy: -8.935993205839 gnorm: 0.000857599580 xtb: 6.5.0 (97a52f5)
N           -2.89985843984185       -0.06968844327215       -0.40234725589694
C           -1.74399127744170       -0.04964270139649       -0.29273623892530
C           -0.34780743514215       -0.02846970052585       -0.15122018263159
C            0.24574250383896        0.61599920059574        0.92958359970990
C            1.61334392461863        0.63526183219127        1.07128435908327
C            2.43515056403236        0.01142188887488        0.13455095276032
C            3.88731647390071        0.01757687818974        0.26596702049547
N            4.71342202421588       -0.53048964881943       -0.61991983385683
C            5.96388167709865       -0.33174976607792       -0.15767675231910
C            7.16163573484464       -0.85396672034181       -0.83135618077237
C            8.29173163910605       -1.25149226861148       -0.11881654572984
C            9.39443985115575       -1.75460844892597       -0.77169112381359
C            9.38782922600540       -1.87930010545419       -2.14646606864943
C            8.27111028848185       -1.50513254794747       -2.86671547036924
C            7.16690613978680       -1.00181364492669       -2.21576821351061
C            5.91018052237866        0.38607342038791        1.06029824301217
C            7.00912585375157        0.89415252284774        1.88901040183807
C            6.91886009610672        0.84699618256280        3.27871558651006
C            7.93956496227197        1.33037601313305        4.06638283129559
C            9.06525514175468        1.87687865504678        3.48301011271388
C            9.16579148262403        1.94366527629882        2.10772196880221
C            8.14739267437695        1.46176235861314        1.31673973703876
N            4.58643597420367        0.58349253008710        1.31599431825229
C            1.83778469226608       -0.63170903858377       -0.94699113665755
C            0.47046070003266       -0.65213520881274       -1.08761151136492
H           -0.38342556101515        1.10107930304988        1.65637587189847
H            2.05699084190178        1.13727446111947        1.91211148829078
H            8.29023409681915       -1.17094451459044        0.95394025623444
H           10.26320613579334       -2.05339613783479       -0.20831696908638
H           10.25184501351859       -2.27269294013141       -2.65641510679261
H            8.26303026418345       -1.60869608696346       -3.93934359871893
H            6.29018879190766       -0.71555743523777       -2.77029041605237
H            6.04147518769184        0.41731967281030        3.73005292130263
H            7.85962529282049        1.28115897346869        5.13991449723284
H            9.86405460070165        2.25291852253152        4.10093134836510
H           10.04227805931482        2.37498086409971        1.65258401849416
H            8.21728176495268        1.52452485925846        0.24469027121010
H            4.20375624450223        1.10833324091221        2.10170626215565
H            2.46801108178615       -1.11592236014800       -1.67227775075552
H            0.01720319069648       -1.15441893747616       -1.92527571078731
