106
 energy: -24.493865024236 gnorm: 0.000586685271 xtb: 6.5.0 (97a52f5)
N            3.89062457130880        1.22934521689570        0.91088297175495
C            2.99793792755246        0.49648922092302        0.78361001261350
C            1.91842984049108       -0.38196700051374        0.63280815370830
C            2.12401932598186       -1.63334902415322        0.09855230471797
C            1.07610261631610       -2.53161243427166       -0.06828183706700
C           -0.20686442435543       -2.19840159704867        0.29656357148884
N           -1.29071135055283       -3.13158925419334        0.11457762192943
C           -2.25485949920271       -3.15370053137444       -0.91330227418758
C           -2.31452488939433       -2.24549414771031       -2.05359574784795
C           -1.27013609285469       -1.38386769384229       -2.38620738121023
C           -1.37705882595095       -0.51596607794596       -3.44429955152172
C           -2.53519584322921       -0.47017855317457       -4.22222391922876
C           -2.66883433388656        0.49409615695346       -5.33258940645638
C           -2.09718950588049        1.76514831143893       -5.25100294671477
C           -2.24919376060099        2.67419539362876       -6.26899957318077
C           -2.97987640833129        2.35933657672951       -7.41326520625764
C           -3.13909865591180        3.36755176157584       -8.45554514572035
N           -2.50019450385236        4.52786811838351       -8.42348466789470
C           -2.91920077988556        5.22745491051258       -9.50164900660049
C           -2.54727309966429        6.56026396452497       -9.90406217005079
C           -1.60405509653381        7.28912452889959       -9.17684505668469
C           -1.25261623651006        8.55445488275769       -9.56353905284530
C           -1.83731182281990        9.11978461464122      -10.68718062394397
C           -2.76789451209668        8.42056800174839      -11.41429556546023
C           -3.15444337843619        7.12365871803823      -11.04910132459788
C           -4.15327115898882        6.35701483220776      -11.80212051242912
C           -4.80059370566256        6.88196300375895      -12.92904842382010
C           -5.74075811482284        6.15700497644142      -13.61630866925939
C           -6.07522372506907        4.87540686951853      -13.20624695250343
C           -5.46394369325991        4.33006031030317      -12.11080140688406
C           -4.50057256503590        5.04635318050543      -11.39311236004737
C           -3.85602515783266        4.49500960461403      -10.23102505524507
N           -3.99497749469186        3.28378727565052       -9.57230295659099
C           -4.92077086796697        2.23198623079203       -9.91163373431388
C           -4.57595041661297        1.25935500390177      -10.82000475679448
C           -5.46395922494425        0.24236444631011      -11.15154987352813
C           -6.71694326571430        0.17150080285962      -10.58704318897199
C           -7.58481318422523       -0.86698642546210      -10.94491232335296
N           -8.30992639162329       -1.72713903137672      -11.23561983976156
C           -7.11141385340434        1.16545999022139       -9.64168649546709
C           -8.38091850957390        1.15562914452189       -9.02611730629398
C           -8.73155689170298        2.11885210571335       -8.12784599441424
C           -7.83425121072115        3.13936306111833       -7.79867835261983
C           -6.59985863805901        3.17868319115952       -8.37434540091552
C           -6.20768372618312        2.19897456431965       -9.30548876724128
C           -3.53964319305727        1.08530742461979       -7.50044090050732
C           -3.38849637001423        0.17374816570954       -6.48499258129272
C           -3.57352893516424       -1.34661329124169       -3.90127585045833
C           -3.46310519578195       -2.21447851756916       -2.84246744886551
N           -3.17040050286139       -4.08656061463868       -0.69681896899601
C           -2.83502127065239       -4.69138291713448        0.46490032712021
C           -3.52499745394209       -5.75258254765630        1.15388794098009
C           -4.67788996750874       -6.32510256662890        0.61266830666347
C           -5.33223534764995       -7.33038256243232        1.27252912884092
C           -4.84793822778933       -7.78596201108236        2.48986837868775
C           -3.71747208927743       -7.23514836445444        3.03954846196698
C           -3.02096838552240       -6.20372439819415        2.39478082413575
C           -1.81791054798668       -5.58809439614333        2.96577757897055
C           -1.28941297483701       -5.99013758861110        4.20018326350161
C           -0.17066829789069       -5.39607240392542        4.72684491724426
C            0.46770733577372       -4.37280700133315        4.04283003018251
C           -0.01853389724740       -3.95512570044519        2.83446671805900
C           -1.15462590243263       -4.54645657265892        2.27251247796491
C           -1.68262019813871       -4.11901364062583        1.00429921095508
C           -0.46445002240932       -0.91543107227568        0.85552742667247
C           -1.76376229149768       -0.53622103522374        1.24116302650157
C           -2.00274413514463        0.69619585324758        1.77087875269580
C           -0.95327454317428        1.60457173591685        1.93921196477101
C            0.31617175929005        1.26649774442951        1.57607491725126
C            0.59981202290217       -0.00062337146856        1.02412795284178
H            3.12131292372061       -1.91452081736370       -0.19407335377513
H            1.25749658826957       -3.50489486601646       -0.48941839404479
H           -0.36799526940976       -1.40103650890684       -1.80554211036385
H           -0.55499017358811        0.13439328064363       -3.68754862338901
H           -1.55177848838476        2.04022093777126       -4.36521171833465
H           -1.81223675412906        3.65428357979942       -6.19160904700077
H           -1.15936842124976        6.83728262958206       -8.30748572999082
H           -0.52364994533471        9.11052794117722       -8.99719211255240
H           -1.55773196073304       10.11579055153951      -10.98953130829874
H           -3.20322954340716        8.88403108268955      -12.28034947447439
H           -4.56455637603084        7.87461407999177      -13.26561635428291
H           -6.22558267614766        6.58556721786068      -14.47823679899340
H           -6.81662335195131        4.31197744174193      -13.74879177674453
H           -5.72640180160971        3.34001152332113      -11.78911540631132
H           -3.60080462071900        1.29782028176780      -11.27293977822480
H           -5.17339546450088       -0.50994514727308      -11.86488757001156
H           -9.07201221842063        0.37126098227579       -9.27873508296780
H           -9.70561430521117        2.09667971678112       -7.66735378941914
H           -8.12216627422022        3.89596857293867       -7.08743414233069
H           -5.90363688901478        3.95996301527866       -8.12587693489267
H           -4.09667919051184        0.81324338325269       -8.37601525296951
H           -3.82058238590620       -0.80730424356135       -6.57854986322214
H           -4.48148114433864       -1.31888245849405       -4.47798648965105
H           -4.27352251652988       -2.87808547453516       -2.59671551038511
H           -5.04271513324912       -5.96012287693580       -0.33143975272512
H           -6.22187241150849       -7.76672756543145        0.84883284534923
H           -5.36546269826688       -8.57744432745436        3.00687604293934
H           -3.36696984666206       -7.60734116342201        3.98451438648280
H           -1.76633128474423       -6.77803902241773        4.75343509543309
H            0.21444553105014       -5.72376444872281        5.67865975077112
H            1.34454532364982       -3.90804798492367        4.46313418343706
H            0.47302181459845       -3.16054623189102        2.30579121411502
H           -2.56597901285041       -1.23982239267797        1.10659746159801
H           -3.00264580699112        0.97414759897367        2.06098522829730
H           -1.15251279582489        2.57696609735726        2.35883298192835
H            1.12259574656570        1.96607806462395        1.70577952086845
