81
 energy: -18.420776217404 gnorm: 0.000511784109 xtb: 6.5.0 (97a52f5)
N            4.00841317618910        0.55623327926758        0.02556195730341
C            3.03324390369845       -0.07379037558836        0.07628838310192
C            1.85612511878224       -0.82885882007426        0.13933151763846
C            1.80962497843905       -2.07360410596531       -0.44654428151473
C            0.65920379967576       -2.85277534661339       -0.40338247235882
C           -0.47518577576863       -2.40606997211874        0.23218926001789
N           -1.66474643928587       -3.21930031147583        0.27606306225042
C           -2.81735405431073       -3.08917946588907       -0.52468673360324
C           -2.98371105380720       -2.13327103449092       -1.59445537400823
C           -2.02802076973946       -1.30836548894830       -2.12357337720690
C           -2.50190879901639       -0.45602662016487       -3.14457974346202
C           -3.83366058830553       -0.60678714724279       -3.42374416832311
C           -4.61654665099432        0.13935654435526       -4.39641652060983
C           -5.96705946146239       -0.16104520700375       -4.58652131029897
C           -6.73245737708806        0.54384532690910       -5.48229042737656
C           -6.17725207604486        1.58142607132119       -6.22449036367506
N           -6.98383983036202        2.33857378091487       -7.13991400708779
C           -7.86262063741306        1.81073438194664       -8.10996972695929
C           -8.14237328911078        0.49272247701929       -8.46965310441785
C           -9.04868225070317        0.25958735200550       -9.47468297012414
C           -9.68182833934843        1.31701807196348      -10.13335586537104
C           -9.41187866583303        2.62184350744501       -9.79750941612485
C           -8.49219098429670        2.87425024840865       -8.77883345920424
C           -7.99191541842748        4.10025197998608       -8.20270752423135
C           -8.27217129860169        5.44274967133353       -8.46068180953006
C           -7.63449852367305        6.40455568055797       -7.71462853336357
C           -6.72556340277412        6.05201433392328       -6.71347559494512
C           -6.43940105973824        4.73525124430325       -6.44899051619813
C           -7.07025721634988        3.74601286584942       -7.20286232601272
C           -4.83060783982780        1.88377250902033       -6.04602275979873
C           -4.06385931158632        1.17818147558893       -5.15069129964799
S           -4.49815859198721       -1.86026846696540       -2.40524270156400
N           -3.76825760391395       -3.93217600864458       -0.14569400062500
C           -3.27099894075407       -4.62210296639600        0.90574621024104
C           -3.92040176126056       -5.63233255193064        1.70256114985353
C           -5.21744128588005       -6.05410097323318        1.40331852039968
C           -5.83188435782347       -7.01172951120808        2.16503469521343
C           -5.16231644216620       -7.56916864212440        3.24445535827767
C           -3.88735900480715       -7.16734781831947        3.55596190109651
C           -3.22552325544358       -6.18965177664775        2.80016678133620
C           -1.86691778894750       -5.73514079629063        3.11623852327825
C           -1.14251758687861       -6.24787379385263        4.20123584567654
C            0.12310924211710       -5.80376853840286        4.49010164495380
C            0.71948493231700       -4.82658220633143        3.70731342267270
C            0.04345001115120       -4.30364056617606        2.63918331631412
C           -1.24629702442686       -4.74119619557879        2.32043102082631
C           -1.97389987185955       -4.20071338760100        1.20456133826919
C           -0.47139861819372       -1.12523291274506        0.85210050979577
C           -1.61387500929687       -0.63033165374592        1.50826828904785
C           -1.60548216703947        0.60196329570533        2.09020041743346
C           -0.45421141338514        1.39374763948364        2.04353126664387
C            0.66911488213143        0.94111498651434        1.41746326811211
C            0.69599815261654       -0.32924134879687        0.80412446030599
H            2.68799016467651       -2.44403440063088       -0.94703776786772
H            0.64247169561701       -3.82248902504075       -0.86909868998177
H           -1.00578437524650       -1.30157534282647       -1.78430712241899
H           -1.86781426355666        0.25735554726772       -3.64646002985681
H           -6.40660893795566       -0.95580345053811       -4.01008613347638
H           -7.77693761298613        0.31714239454634       -5.60530813677375
H           -7.64300993741294       -0.31636241539630       -7.96783813310981
H           -9.27454059488731       -0.75417912070607       -9.76190259810185
H          -10.38907801075396        1.10491681908700      -10.91812956712742
H           -9.89194457480133        3.44127455431715      -10.30245704731219
H           -8.97775626663029        5.70576751332696       -9.22870731177452
H           -7.84048782456355        7.44575300669093       -7.90044055835333
H           -6.24409706557408        6.82616529528204       -6.13894090491849
H           -5.75119047886887        4.45792174057807       -5.67109323378732
H           -4.39558108603086        2.67554516365999       -6.63043373103434
H           -3.02645966159594        1.43101094082148       -5.02382735500137
H           -5.72481543509498       -5.61244642663114        0.56360675886514
H           -6.83317333212892       -7.33192372013956        1.92769147739912
H           -5.64910167210225       -8.32233676037366        3.84228902221345
H           -3.39416086979082       -7.61538330621782        4.39883359062160
H           -1.58135888258332       -7.00373110877970        4.82614182227727
H            0.65819702789811       -6.21426532355522        5.33081402935983
H            1.71307719244306       -4.48048590648879        3.94082083797810
H            0.50215013075095       -3.54481931938026        2.03370996390030
H           -2.49659846933056       -1.24415369237795        1.53711167297870
H           -2.48800594043799        0.96978714933692        2.58725272583230
H           -0.45790783288938        2.36724933934294        2.50567254219101
H            1.55386055452019        1.55154714153919        1.38166214477848
