47
 energy: -10.698997007076 gnorm: 0.000870382960 xtb: 6.5.0 (97a52f5)
N           -2.84737168816323        0.10012165849086       -0.25624570375165
C           -1.68675294958942        0.06614134016720       -0.23046843234587
C           -0.28397662676707        0.02557899887242       -0.19879028007652
C            0.45377933230518        1.17591790613811        0.06411507957746
C            1.82764603546717        1.13543125398754        0.09620977159991
C            2.50700399663613       -0.05624614587504       -0.13171158678225
N            3.94012401700440       -0.09736357463264       -0.07772333728399
C            4.82419079867854       -0.68131216381145       -1.00875703677523
C            4.57743120989984       -1.34080134065932       -2.21413043678134
C            5.64169050561509       -1.81916356634425       -2.93690488842806
C            6.95695028044408       -1.65472935039451       -2.48572188748153
C            7.22359388175958       -1.00274763445445       -1.30876673150460
C            6.15176091882218       -0.50272108253077       -0.56419467245112
C            6.07882824279755        0.21292992684556        0.67528863475610
C            4.73987868128550        0.44330618246616        0.95890585752683
C            4.66515087800520        1.09165601344153        2.23508965592513
C            3.59071378258959        1.53067848136488        3.01388389826516
C            3.85573604978058        2.13015042080394        4.21875320427289
C            5.17191560175320        2.30006655526240        4.66585270739663
C            6.23779249083697        1.86690553218843        3.91783513308617
C            5.99179351299128        1.24822768576172        2.69087094799440
N            6.87678069443269        0.71274602036406        1.73275073626165
C            8.31008457589121        0.65243227557967        1.79623972906519
C            8.95163702021480        0.16442465448955        2.92880640196838
C           10.32623573845157        0.09569302035821        2.97840733342357
C           11.07963304239508        0.51319282999575        1.89873770045308
C           10.45403377394876        1.00180663686846        0.76858806117713
C            9.07980024290570        1.07182300015360        0.71734645488061
C            1.77152364031659       -1.20617117036645       -0.39725084986534
C            0.39744533746234       -1.16557201884688       -0.42995438898373
H           -0.06748340063855        2.10112574524139        0.24124924576730
H            2.39700712206746        2.02833429901034        0.28663304606688
H            3.56679992015229       -1.45934053364236       -2.56097510017038
H            5.46350675423210       -2.33173776381887       -3.86782502077108
H            7.77076190197168       -2.04547461222052       -3.07399360700061
H            8.22971475346087       -0.87399837708310       -0.95284556207764
H            2.58329332053214        1.39166868280778        2.66545553081788
H            3.03950899972914        2.47558431739409        4.83147680047375
H            5.34838512433129        2.77798101335711        5.61534149288553
H            7.25008938335304        1.99961528911751        4.25453411617668
H            8.35682797718052       -0.17382999768124        3.75899184264957
H           10.81458448767925       -0.28737150540123        3.85941018818377
H           12.15514801095376        0.45796584096043        1.93812338937576
H           11.04128320163418        1.33003396383000       -0.07332609737490
H            8.58301909169305        1.46247590250599       -0.15346484116751
H            2.29483840645559       -2.13195216482305       -0.55956802665632
H           -0.16824807295735       -2.05890244523597       -0.63274847229793
