22
 energy: -4.431155290069 gnorm: 0.000789188640 xtb: 6.5.0 (97a52f5)
N            1.19155804208292       -0.07262217027177        0.43565646100393
C            2.34371633412320       -0.04678451365817        0.29569014402195
C            3.73619776644279       -0.01868783622607        0.12661707667967
C            4.42722624411070        1.19009118817378        0.10453418413116
C            5.79195111718929        1.21309162030796       -0.05292556993513
C            6.52428344711648        0.03737725026032       -0.20175415293461
C            7.97575693301132        0.06468438653962       -0.31455923943234
C            8.69187699106173        1.07204061656870       -0.79884756456194
C           10.19102625028934        0.97499250070290       -0.86678176655748
F           10.62490133183815        0.27936503157898        0.19828533042708
F           10.53360566551719        0.33579628936590       -1.99813015424414
F           10.71425817927780        2.21249072708798       -0.85831535939103
C            5.83149073565021       -1.19925441863181       -0.19716414842689
N            6.49535346086725       -2.39818323757647       -0.38405113552671
C            4.44621995720604       -1.19478643259154       -0.02161853918982
H            3.87548123476212        2.10869507124503        0.22145567911339
H            6.31013075271929        2.15673689063471       -0.03096245213600
H            8.52094841055088       -0.79226960906027        0.04518922801744
H            8.22766548538272        1.95665745666420       -1.19270591853710
H            7.42408567326794       -2.45414178569968       -0.76255576271324
H            6.00172116214565       -3.26691031380008       -0.48063630699506
H            3.91464482538702       -2.12943871161413       -0.00680003281262
