84
 energy: -16.223818765255 gnorm: 0.000523942872 xtb: 6.5.0 (97a52f5)
C            0.95683790224653       -0.16870408777871       -0.04820217895816
C            2.40170297669268        0.26257956660839       -0.36419759388496
C            3.29156911282299       -0.99618523496658       -0.36773221150807
C            2.45717880539674        0.90181189287671       -1.76416475779326
C            2.86965688763890        1.28938546927851        0.67981700940473
C            3.99997762885702        1.09397055068930        1.46467033633551
C            4.39801566118398        2.03764440005536        2.38542631681731
C            3.68262235445465        3.22057781932533        2.56243866053813
C            4.12058802332201        4.19859956727834        3.54282688102818
C            3.51485223734306        5.33663721762046        3.92615345427286
C            4.20110025601845        6.08919676049072        4.98621191525142
C            3.75434334592588        7.28083865658191        5.57848334101046
C            4.51368666540640        7.83461608100703        6.57755817969287
C            5.70840002231860        7.25887250402490        7.01667637842688
C            6.40020649315182        8.01994687825367        8.06738820208347
C            5.78694887468445        9.15202010814044        8.45682407557537
C            6.22825537568147       10.14604763012765        9.41897864062655
C            7.45653113322945       10.05219960486670       10.07233726024270
C            7.85334756028457       11.02029583041078       10.96938081973026
C            7.04826608057087       12.11550991295139       11.25816587997961
C            7.53470652396797       13.17884136914116       12.25620203241584
C            7.85869447630131       12.50888304291472       13.60540045150771
C            8.79960976542197       13.85601895560593       11.69711032076379
C            6.46746370198057       14.26394607346247       12.50124238581956
C            5.82560273826877       12.21055396210682       10.60407674835137
C            5.42438947200264       11.24840741879864        9.70398530198538
P            4.24438402809268        9.32861222362618        7.53477116534025
C            4.82029123165337       10.53055236498246        6.31625119466298
C            4.06604345280053       11.66900624639380        6.13875939030855
C            4.47090067794095       12.62730891184730        5.22529668279680
C            5.62874789161345       12.43775299484804        4.49593957979836
C            6.38213077139445       11.29420725348698        4.67773461270713
C            5.97514708535444       10.33941206958672        5.59175478695837
C            6.15284578474642        6.06467276227856        6.42741063523436
C            5.39184592611614        5.50905872668285        5.43029998278185
P            5.64786180847730        4.00291013047693        4.48783206729751
C            5.03411499774912        2.82031731164542        5.70710779232783
C            5.76101886536269        1.66694817046105        5.90194936907876
C            5.32076658393286        0.72100716749919        6.81196544234650
C            4.15530311722923        0.93795076594730        7.52125701255123
C            3.42964796474063        2.09645891835695        7.32264056984633
C            3.87161523260383        3.03836928638923        6.41158366586778
C            2.54870383842599        3.41697728473448        1.77502406124272
C            2.15703525292807        2.46952797431707        0.85409108912475
H            0.60972173421829       -0.91796941853467       -0.75935232860504
H            0.27049550025447        0.67564484069128       -0.09509034616149
H            0.89296241468468       -0.59760630106813        0.95152586956813
H            2.93806635567774       -1.71714523414503       -1.10464174510948
H            3.28030888020484       -1.48694100729704        0.60518391968190
H            4.32234474546075       -0.74841675777108       -0.61975613152576
H            2.14734180945313        0.19122958827816       -2.53009678978621
H            3.46987908125514        1.22960256969488       -1.99775868053798
H            1.80141189350776        1.76914511799745       -1.82905415042616
H            4.57825928574231        0.19340784305087        1.35855490630573
H            5.27066760184309        1.86580236130153        2.99072605531046
H            2.57839127880672        5.67682029535775        3.51094339867198
H            2.83915621296566        7.74660888178884        5.25973008224769
H            7.34753646645991        7.69278263424217        8.46818850498071
H            8.10196734131645        9.21639076291695        9.86657711769615
H            8.81051404502506       10.92937510371662       11.45305543955590
H            8.65829911036120       11.77640866906705       13.50445696391148
H            6.98223621893513       11.99657051059662       14.00142062869624
H            8.17783506894410       13.24774262073483       14.34016815282926
H            9.60228600723928       13.13416991302345       11.55148622021972
H            9.16260630758720       14.62680234764412       12.37661324978584
H            8.59220838050513       14.32450844305320       10.73529945814969
H            5.55031531926344       13.82850775143784       12.89724527999966
H            6.22950711372634       14.79728308798342       11.58130765617160
H            6.82260586339525       14.99909847363739       13.22317373135523
H            5.17736749065996       13.04713112515786       10.79536899159899
H            4.47789929728872       11.34223100561957        9.20077707489972
H            3.16498484850022       11.80363172356320        6.71729431131117
H            3.88325940153790       13.51994618672166        5.08483855292410
H            5.94446550715548       13.18315736770757        3.78406476433403
H            7.28598159252287       11.14585183390245        4.10944924238282
H            6.55566752325509        9.44472922999142        5.74324287969211
H            7.06616117919913        5.59708474432206        6.74886724760049
H            6.66786973253683        1.50956272521960        5.33842875315117
H            5.88606599619294       -0.18395797403199        6.96467161731539
H            3.81083141864681        0.20232065639384        8.22996910433169
H            2.51885584460871        2.26553885581229        7.87381768477727
H            3.31036041970069        3.94246060261870        6.24455246106131
H            1.97811859926533        4.32214157153832        1.88730303063727
H            1.28176852585380        2.64849473456141        0.25384087097721
