53
 energy: -10.340461740660 gnorm: 0.000784062834 xtb: 6.5.0 (97a52f5)
N           -3.35208164333557        0.17417751435939        1.01160189235615
C           -2.22264350550621        0.01487660561543        0.79299189949720
C           -0.85895535997993       -0.17596652043478        0.53001380340245
C           -0.25830920451244        0.41803758556240       -0.57444869983623
C            1.07804826255038        0.23024360968069       -0.83225521002649
C            1.87119588912026       -0.55904446681219        0.00568285963868
C            3.27680289979355       -0.73292212723124       -0.29725988791104
C            4.16185583190307       -1.42635761064435        0.44528735925193
C            5.53641605212037       -1.55615963670837        0.09448052925293
C            6.43025874056510       -2.24054864751206        0.83463106712765
C            7.82216204992113       -2.39600324144737        0.49042920885269
N            8.47183098080351       -3.50264938917510        0.73746821172352
C            9.78769699144065       -3.42747172298599        0.23630669327858
C           10.77912437615409       -3.28126316670213        1.36898617535119
O           10.70124283122355       -3.97130618323983        2.36213469521048
N           11.75678359897276       -2.33239323203179        1.20265234432957
C           11.88767470434201       -1.51979425178501        0.07875909998257
N           13.02722281170374       -0.74325483554543       -0.03072001883360
N           10.99887981836359       -1.46368370633720       -0.85957699914996
C            9.80616319619760       -2.20235702279659       -0.72887626208779
N            8.62383300825606       -1.47786769824951       -0.22935166621423
C            8.33192740702459       -0.05436370334163       -0.54276906618185
C            7.50408606074353        0.66190752311663        0.55593082918912
C            8.31751841588427        1.91697855693097        0.90426708273545
O            7.80201165347207        3.08467607636548        0.28733415900423
C            9.73604461834594        1.58415744901360        0.37900521067766
C           10.58647069709072        0.91678870693864        1.46163261178827
O           10.69749010251634        1.69126290238451        2.63049342167512
O            9.53315735931464        0.71533003408287       -0.74881188484307
C            1.25952645139435       -1.15307844410727        1.11368404026900
C           -0.07771863304244       -0.96394630850562        1.36812499255595
H           -0.85772178470158        1.02995209477091       -1.22702523299917
H            1.52830828470594        0.69749986437648       -1.69128646380418
H            3.63802893681415       -0.25991429784939       -1.19349539776838
H            3.83634127258732       -1.90264876499294        1.35155317400336
H            5.86426233411548       -1.10721281297115       -0.82545264867081
H            6.08011091353478       -2.77468846111148        1.70036091250684
H           10.01384620593754       -4.35567415040580       -0.31230421681566
H           12.43794057232627       -2.24371038478930        1.93881775221657
H           13.85143641084434       -0.92645334035844        0.50922658431738
H           13.22372471405538       -0.28548467536648       -0.89856207965473
H            9.54462538108102       -2.54304817314829       -1.74374980095719
H            7.80459407271151       -0.03530134417360       -1.50645652568056
H            7.39265493638247        0.01251000819802        1.42828746655137
H            6.50403197236508        0.94327306485492        0.21530903198553
H            8.33875130552160        2.10846637135010        1.98903884982762
H            7.83465189821533        2.98638648421733       -0.68215473608744
H           10.22186672413615        2.49749040186307        0.00811601564940
H           11.58982601209849        0.66897394089916        1.10180718155322
H           10.11685378993082       -0.02902064049500        1.74768217196663
H           11.15224403532616        2.53591413375015        2.44916686483339
H            1.83797495247090       -1.77067799850492        1.77668012005172
H           -0.53849940330906       -1.42685596858275        2.22440248491997
