33
 energy: -7.112472222015 gnorm: 0.000730833115 xtb: 6.5.0 (97a52f5)
N           -2.97707665923486        0.18847944644780       -0.52450056751058
C           -1.83057119764694        0.12245920881051       -0.35272580800813
C           -0.44630816241350        0.03653349224165       -0.14470262348057
C            0.29104006439103        1.16471936078101        0.19471414056706
C            1.64787123921535        1.08216499343409        0.39672396530939
C            2.32402943402959       -0.13287866831385        0.26490002701036
C            3.75901995142748       -0.18049341004574        0.48005871076258
C            4.54475711070361       -1.25645334473459        0.29643339064660
C            5.95834467354961       -1.23973063108264        0.51641106959831
C            6.74761576637962       -2.30547528411387        0.29302419960993
C            8.18561604175237       -2.35220598201890        0.48621153181786
C            8.89776760475632       -3.48427200684942        0.08116723883174
C           10.26027155720582       -3.55855005793026        0.24489078973252
C           10.95257078926168       -2.51013575422566        0.81964626783065
N           12.40489799119741       -2.58873376624173        0.98671187634691
O           12.99628742486252       -3.59745534530360        0.57580402895635
O           12.99175464682808       -1.64329176801239        1.53223556752506
C           10.26422766993506       -1.38460933755402        1.23026671720216
C            8.90150183307390       -1.30233804548016        1.06794785783450
C            1.57561493161781       -1.26256576262728       -0.07411048421684
C            0.21827743442294       -1.17726318364562       -0.27456943909254
H           -0.21759421031832        2.10843855753737        0.29621885231409
H            2.20512734371625        1.96571435975292        0.65703418547084
H            4.22712386823031        0.73208234087042        0.80462549314287
H            4.11001878672488       -2.17811793589173       -0.04371817286061
H            6.39423944882453       -0.32058943543037        0.86199301955770
H            6.28287751942727       -3.20439542654517       -0.07213868993435
H            8.36692765752469       -4.30459796404950       -0.37081919899473
H           10.80769971939960       -4.42965000530935       -0.07313912124027
H           10.81595475506509       -0.57562769065605        1.67846461766945
H            8.38349688167791       -0.42113489756002        1.40087729991765
H            2.06323998896010       -2.21509398227287       -0.17610791782270
H           -0.34869190454802       -2.05456207398237       -0.53647882449414
