47
 energy: -10.310940838193 gnorm: 0.000821862066 xtb: 6.5.0 (97a52f5)
N           -3.17704074365310        0.27136856126346        0.15922775166604
C           -2.01833117758560        0.22864406529141        0.22735902333734
C           -0.61929301287458        0.17540632806968        0.30824059495482
C            0.11505172614774        1.30123268481792        0.66579615793687
C            1.48595633946758        1.24943539674703        0.74664006689506
C            2.18140482707641        0.06783579215762        0.47245210009316
C            3.62668963243144        0.05131894826295        0.57371976219970
C            4.42146248779389       -1.01235900804425        0.34406187273257
C            5.84189015903788       -0.96489861780506        0.47157912448648
C            6.64025612567078       -2.02143723856975        0.22121825598754
C            8.08258000260628       -2.03501638328050        0.33898134578877
C            8.81678923512390       -0.94078024078661        0.85098828777636
C           10.17211552763273       -0.99926260802515        0.97087021587913
C           10.89208892102262       -2.14757821895029        0.57825009114639
N           12.22546369954201       -2.21353276909627        0.76352315005024
C           12.76952838418755       -3.34742841470084        0.41492116975238
N           12.23458227073029       -4.43192128212572       -0.12913054165262
C           10.93619205161476       -4.36565947635368       -0.37927038363069
N           10.34266815757115       -5.45412106812482       -1.03465479546154
C            9.29317212330241       -5.48004927216924       -1.98855950719395
C            8.56840080535380       -6.65202054441907       -2.20118493445866
C            7.56281924521098       -6.69436437713784       -3.13956900389337
C            7.26769187898917       -5.57415116156369       -3.89182497980273
C            7.98784635335455       -4.41036826108847       -3.70647182163893
C            8.99406047398007       -4.36423050391305       -2.76968788788510
C           10.18067425540492       -3.22786867865225        0.02269993413667
C            8.78363316306504       -3.15961292028712       -0.05377439014450
C            1.43639225586907       -1.05944592104458        0.11267609220116
C            0.06488049662167       -1.00433483754633        0.03325414388750
H           -0.40815403818955        2.21772811671675        0.87941968019223
H            2.04024026677930        2.12912607061474        1.02532980340214
H            4.09858623232978        0.97450638121642        0.86122211561808
H            3.98289974439759       -1.94869469722522        0.05205856967008
H            6.28004463359439       -0.03165334775045        0.77387754500910
H            6.17390301601415       -2.93590803363471       -0.10119652648583
H            8.29630483574355       -0.05573618330164        1.16910171592464
H           10.72124629619379       -0.17080812281379        1.38249497620493
H           13.83540027585187       -3.41063979996591        0.58796358637562
H           10.91950975539144       -6.29105841640438       -1.00275334901433
H            8.79970572862775       -7.52137937385009       -1.61128787292763
H            7.00404616558755       -7.60396953999119       -3.28802672472618
H            6.47865150407684       -5.60930687969615       -4.62498958025666
H            7.76387306646966       -3.53837511400448       -4.29868821361310
H            9.57150912938349       -3.46661795590025       -2.63555065901554
H            8.23984883201648       -4.00975636692672       -0.41874536658976
H            1.93925770069369       -1.98433897125804       -0.10509344454800
H           -0.49863880965880       -1.87899773875754       -0.24380715037405
