51
 energy: -10.983413301311 gnorm: 0.000419545359 xtb: 6.5.0 (97a52f5)
N           -3.11055636055421       -0.12566917743710       -0.63881692570510
C           -1.95801699732486       -0.12100904542791       -0.49412066257440
C           -0.56613960363996       -0.11593410985193       -0.31444787219000
C            0.11671479885227        1.07436856508758       -0.08919760704823
C            1.47985252425971        1.07914867179349        0.09332771865484
C            2.21598977260588       -0.10699350267188        0.05452493705863
C            3.65572523860852       -0.06419362561184        0.26027889803597
C            4.49741376940681       -1.09569144874654        0.08329122844168
C            5.93348527992874       -1.05951206979940        0.30210748381560
C            6.70948850033598       -2.17539743167935       -0.02342695189994
C            8.06793761249541       -2.18010672048791        0.17800809222704
C            8.72085966145763       -1.07298189062813        0.72874891052357
C           10.16228760611951       -1.10721048041762        0.91151660754984
C           10.91013208345720       -0.35212669633745        1.76415238633305
C           10.29443155510804        0.53038302312299        2.78462530795367
C           10.58977558892428        1.89275664290655        2.81558109153755
C           10.02450860735837        2.71291447945423        3.76651566441908
C            9.15947672424040        2.18966130669589        4.70683572879403
C            8.86294833896175        0.84131208019572        4.69716749818666
C            9.42625434128723        0.01733054153389        3.74836302653233
C           12.38537895933165       -0.44366121362195        1.72930890038863
C           13.13044461147108       -0.25480318739738        2.89316813611714
C           14.50597871389241       -0.32010855453214        2.87276473960122
C           15.16869931173542       -0.57355401008116        1.68900007997952
C           14.45046560280139       -0.75939074345894        0.52508203799383
C           13.07430962644374       -0.69458623170533        0.54216374242036
C            7.94480282535720        0.04832696134652        1.03707420643754
C            6.58688638441718        0.05531091927822        0.83413392363924
C            1.52393066235943       -1.29903745862947       -0.17091488162937
C            0.16012691281730       -1.30133992857615       -0.35188397384241
H           -0.43914338296221        1.99598789056944       -0.05846996678167
H            1.99484993199504        2.00838391467902        0.26740457029351
H            4.05935600954173        0.88281654603860        0.56707097369139
H            4.09666715973894       -2.03119327486857       -0.26077835143693
H            6.22648436714430       -3.04187703906346       -0.44147001173736
H            8.64692730156302       -3.04993480686715       -0.08088072490146
H           10.68821857660646       -1.82263682359937        0.30388504742047
H           11.26561533328005        2.29562912029722        2.08102010403566
H           10.25912490944357        3.76470182330329        3.77753705070413
H            8.71763516784165        2.83329914990497        5.44978773336061
H            8.18933911382439        0.43288496519387        5.43259287246571
H            9.19908669193130       -1.03473426383369        3.73752758920711
H           12.61348499069011       -0.05735097632072        3.81621344445501
H           15.06548277198031       -0.17180691958053        3.78184481709259
H           16.24520731393438       -0.62291077248046        1.67298997185364
H           14.96818712196628       -0.95124886913447       -0.40051339146520
H           12.52178747873302       -0.81526230323650       -0.37322210336919
H            8.42587019076794        0.92565234212274        1.42948769920578
H            6.02115813499283        0.93192811649449        1.09338434899239
H            2.05922511316466       -2.23126909967623       -0.19056491164405
H           -0.36362694868875       -2.22663438426151       -0.52204823319511
