41
 energy: -9.232275753442 gnorm: 0.000517592705 xtb: 6.5.0 (97a52f5)
N           -3.03552924318662        0.02040968462819       -0.01023796060211
C           -1.87498353240631       -0.00013820247081        0.03143141368891
C           -0.47314780135160       -0.02425838513306        0.08266116854122
C            0.24680283956742        1.12252730657978        0.39898334890171
C            1.62037414778268        1.09812304244531        0.45223386347621
C            2.33096179900729       -0.07504519221435        0.18954457363818
C            3.78137734918423       -0.06487474363159        0.26952881061408
C            4.58745577169099       -1.09148600671606       -0.05597376231833
C            6.03522731633916       -1.08424127706537        0.06575194936780
C            6.66639461890626       -0.17817166561197        0.92712000942144
C            8.02700531781561       -0.16215994015102        1.09730620456285
C            8.84619430619575       -1.06148718589518        0.41056195158692
C           10.26361920732753       -1.07065985191345        0.57880093959971
C           11.04397967700222       -1.94880288580165       -0.09004452213334
C           10.47714054785796       -2.89978196649256       -0.99278063603735
C           11.26106909572559       -3.81659291270426       -1.69537718401393
C           10.68376839398937       -4.72130611982238       -2.56153737529505
C            9.31844015993371       -4.73921151672049       -2.75311618367925
C            8.49057113954576       -3.84347472019675       -2.07367357673710
C            7.07507216051248       -3.82768142766991       -2.25120028203625
C            6.29284995028849       -2.95333337492810       -1.57844369793263
C            6.83912059644565       -2.00755654662067       -0.65515842508942
C            8.24650796089378       -1.99041103958985       -0.47303175379181
C            9.07292826670093       -2.91290794354228       -1.18115079214695
C            1.60129122629532       -1.22337787397276       -0.12769089710302
C            0.22720621612498       -1.19628019447797       -0.17946510841827
H           -0.28868060033137        2.03349268298156        0.60382240529514
H            2.16392013685795        1.99365986362730        0.69973106876594
H            4.23113900467850        0.85473853814938        0.59638859719817
H            4.13321767140225       -1.99158871321006       -0.42268843492040
H            6.06375199533518        0.50690948997056        1.49641055510632
H            8.47919499066383        0.54306337310146        1.77314540972944
H           10.70578640800657       -0.36017136552053        1.25549715247947
H           12.11096387564139       -1.94262096743829        0.04971119747830
H           12.32783239195683       -3.80967975491301       -1.55315851988423
H           11.30622669072293       -5.42100374534088       -3.09467112259951
H            8.87688076621214       -5.44785641807777       -3.43216632852351
H            6.63652492103849       -4.52765295823003       -2.94114639959371
H            5.23337232399776       -2.95926209875970       -1.75732406489058
H            2.11595238072203       -2.14609645322623       -0.32435990946010
H           -0.32514044509433       -2.08822053342457       -0.42163368224791
