32
 energy: -7.093201152828 gnorm: 0.000767466642 xtb: 6.5.0 (97a52f5)
N           -2.93190664813637        0.96146226194455       -1.16466402301477
C           -1.83031385392976        0.74429372377761       -0.86672922638084
C           -0.50244711537028        0.48475263032792       -0.50464536206281
C            0.48594473641274        1.44675229767263       -0.68691450496805
C            1.78620914198896        1.19372969897185       -0.32813385104226
C            2.15841756043116       -0.04128175637731        0.21792608414512
C            3.53041282256114       -0.26360245752141        0.60329630309618
C            4.16791140648221       -1.46341265891527        0.76685952133150
C            3.75352696657701       -2.78120514813426        0.46959100987599
C            4.78780042819835       -3.62534750686001        0.78314073430388
C            4.80006394364324       -5.08147346786675        0.62909838689530
C            3.74036661394218       -5.78461558704818        0.06217014933933
C            3.79877554654185       -7.15444912280562       -0.06538984927874
C            4.91143638887666       -7.84501647052824        0.36965401918176
C            5.96908837166631       -7.16155365279073        0.93328326612998
C            5.91365564885020       -5.79208276780189        1.06053234575212
O            5.87529183747765       -2.92814583518687        1.27429797666819
C            5.54905776503806       -1.59377487914111        1.27146783911874
O            6.23941307551033       -0.65552395695916        1.61899830809864
C            1.15306923687670       -0.99563308500482        0.41507177060936
C           -0.14700961310546       -0.73701938945002        0.05846562853339
H            0.21452596907940        2.39755322682296       -1.11357589584795
H            2.54026038348972        1.94783290751233       -0.47540947913555
H            4.12870545476463        0.61421915027122        0.77954638491439
H            2.82851009619692       -3.06936008894624        0.00835902651998
H            2.87128819954784       -5.25234795625437       -0.28120306039467
H            2.97366811156146       -7.68932128226899       -0.50680930794970
H            4.95414914339979       -8.91724556256057        0.26900196707153
H            6.83872813310857       -7.69928067949054        1.27387372095859
H            6.73385916773654       -5.24734898111154        1.49663095956884
H            1.39278822905116       -1.92066078322592        0.90656947597044
H           -0.91289714847935       -1.47626282105194        0.22187968198661
