32
 energy: -6.068259421805 gnorm: 0.000842755605 xtb: 6.5.0 (97a52f5)
N           -3.13272220611905        0.82527607975919        0.62991331613794
C           -1.98328638186233        0.69063864129158        0.53071354146370
C           -0.59737459708201        0.52653065330598        0.41257574931423
C            0.26610819128305        1.05865605903394        1.36454614848690
C            1.62416892610408        0.89907334318840        1.24731353487128
C            2.18186117455950        0.19784548283106        0.17075159594284
C            3.61023720102049        0.05984650212136        0.09096649560383
C            4.34719597440094       -0.60586614252520       -0.85959988401279
N            3.96009148044035       -1.31921763457075       -1.96341482755281
C            5.06021254195079       -1.77614971156170       -2.55033726626736
C            5.10773443365854       -2.59432600361687       -3.77740546408695
C            3.97259160582892       -3.00324903920038       -4.41244671555901
C            4.04385005387728       -3.74088927765802       -5.50234800355012
C            5.21609183232541       -4.09630618962833       -5.99904250026793
C            6.33546975100614       -3.71624957492173       -5.40794501061258
C            6.29805104829476       -2.97816302376499       -4.31638418155975
N            6.20463926040719       -1.40069278289902       -1.88166082677930
C            5.82953779423912       -0.66517222035974       -0.81385934863790
O            6.52503651906313       -0.14122210061044        0.03253532771626
C            1.30358754316300       -0.33332719064293       -0.78095933620493
C           -0.05409750954282       -0.17079268542900       -0.66157588179272
H           -0.14845956596664        1.59961150801401        2.19810220580933
H            2.27809953199679        1.31684797438651        1.99338693094994
H            4.17813579880610        0.53285909976614        0.87243428170264
H            0.80943688314665        1.66810304026999       -7.37062863799983
H            0.36566203430691       -1.36347338873103      -11.18136525577229
H            5.07371859842805       -7.83654961335086      -11.21269977553855
H            8.69758699339967      -10.40178477492570       -5.65533681221881
H            9.59491511089666       -6.06723442431077        1.22907453367823
H            8.40210902417906        0.42049220080722        0.72762265146944
H            1.69580623757439       -0.87486734024700       -1.62100254775152
H           -0.71816528584038       -0.58311746610277       -1.40215403632440
