30
 energy: -6.677282781429 gnorm: 0.000918318825 xtb: 6.5.0 (97a52f5)
N           -2.85700716783502        0.32089266527524       -0.21903385517331
C           -1.70455422086277        0.19995414430524       -0.14260599454488
C           -0.31370222779737        0.05525525061347       -0.05124528376657
C            0.51302932707491        1.17377694820516       -0.00555716138268
C            1.87612950930836        1.03769338395017        0.08483362708691
C            2.47021042961278       -0.22889642257936        0.13282575629452
C            3.89502110308047       -0.35383790506194        0.22609710669614
C            4.56749839906242       -1.54103068950747        0.27178626893199
O            4.00126963566737       -2.80942727182041        0.23805484561835
C            5.00555495138990       -3.74963127441549        0.29799761033179
O            4.89653336528634       -4.95894286879360        0.28859847801484
C            6.29351866558814       -3.03664143321745        0.37851622685133
C            7.58624695425174       -3.50501429014529        0.46211208965191
C            8.63788705980002       -2.58584193015876        0.53338956710688
N            9.94323514183606       -3.02164193030972        0.62027743235032
C            8.34287631529198       -1.20692531754018        0.51995662604068
C            7.05209224241912       -0.74871264557206        0.43716319072934
C            6.01421519523789       -1.67655640152293        0.36370578106939
C            1.63095242002526       -1.34604700190615        0.08573081864574
C            0.26880630745772       -1.20749166397673       -0.00416235528284
H            0.06589796990511        2.15284477921939       -0.04230472916239
H            2.50305143968113        1.91226744591785        0.11927538732815
H            4.46996417854264        0.55283302968098        0.26012512438766
H            7.77722230974835       -4.56162998488877        0.47393711874004
H           10.20396131608601       -3.98912743789320        0.55047051399506
H           10.73190277712883       -2.40027319648073        0.59220493473828
H            9.15764418201259       -0.50722197334208        0.57737249596098
H            6.83618168866713        0.30497215971711        0.42869175768714
H            2.07248994945832       -2.32609923558057        0.12065501302672
H           -0.36618921712216       -2.07652893217037       -0.03986839197469
