41
 energy: -8.193508547435 gnorm: 0.000328269555 xtb: 6.5.0 (97a52f5)
N           -2.90927753402838        0.01407533055425       -0.27247705437411
C           -1.75504118063897       -0.00567737717000       -0.14433127717579
C           -0.36113211822055       -0.02854780705641        0.01083927300900
C            0.28723092323425        0.95268870731617        0.75530458959096
C            1.65277029599211        0.92934671883263        0.91022143157938
C            2.41508080163243       -0.07780245154599        0.32324702323695
N            3.78985729661000       -0.10524215980953        0.48218451346164
N            4.48227547948760       -0.96951817327032       -0.07771333033843
C            5.85183719811294       -1.01389731363282        0.10360602909078
C            6.63008412849272       -1.93788449517612       -0.58809837403768
C            7.99591722662293       -1.99641351200457       -0.41881295493061
C            8.62580057060014       -1.10885360141278        0.47766320668556
C            7.84227966242782       -0.17195608364769        1.18214965715369
C            6.47985840024447       -0.13906093234294        0.98271512375764
C            8.47980850322294        0.78518711219211        2.14707864897179
C            9.79991417003333        0.24867198579752        2.71785534827008
C           10.71301999634587       -0.24809982787546        1.59821666898534
N           10.01282556400657       -1.15914966585496        0.66880761703444
C           10.87171678550856       -2.12808684011869       -0.04311509385799
C           10.26277702114989       -2.57759562121547       -1.37024640887701
C            8.79983659547556       -3.00535452828550       -1.18658188967528
C            1.76729068199000       -1.05756763373955       -0.42200980361445
C            0.40165290603050       -1.03410611140959       -0.57559049542070
H           -0.29824296487899        1.73302720275760        1.21082765261812
H            2.15247682354915        1.68829856407717        1.48630532553104
H            6.14547752286222       -2.61669559369731       -1.26592722463155
H            5.87780275052550        0.57392936376063        1.51477172524198
H            7.77406517707790        1.00981185099621        2.95666315876888
H            8.65681130990930        1.73705035759276        1.63295463255714
H            9.58932648379087       -0.57777348288945        3.40746188747785
H           10.30554137116042        1.01739268181525        3.31858559239013
H           11.58675038788992       -0.76882755560118        2.00500758589857
H           11.09539316356384        0.59487695056026        1.01443349220026
H           11.02512627209641       -2.98675927202465        0.61783511897895
H           11.85584093952807       -1.67217691873147       -0.19729913580629
H           10.85324005151993       -3.39372292683350       -1.80928043774796
H           10.31382101009897       -1.75256228893005       -2.09105521086148
H            8.75660142981637       -3.96480560514520       -0.65813664750282
H            8.32644344250972       -3.17998622011691       -2.16097358923433
H            2.35714455931026       -1.83501855222410       -0.87372998078654
H           -0.09431310466618       -1.79634427449054       -1.15197639361813
