52
 energy: -12.959024989728 gnorm: 0.000901870311 xtb: 6.5.0 (97a52f5)
N            1.87985494566589        0.17804435614647        1.53881438720863
C            2.97682376956003        0.16051535902586        1.15952269932383
C            4.30373604348726        0.13527040261525        0.70107909899989
C            4.98751448506250        1.31676656532551        0.44368814741809
C            6.28755299722466        1.29114784102408       -0.00804626620351
C            6.94443958208475        0.08350448610459       -0.21619877996534
C            8.27187393467889        0.05782941799775       -0.68766940852476
C            9.41459682233856        0.04279864638930       -1.11839727429294
C           10.71961280984375        0.03257289874482       -1.64716992429294
C           11.34535218917456        1.23417319717955       -1.95928309970438
C           12.61197037939856        1.25794398110456       -2.49553481644703
C           13.30069506054243        0.07553343502295       -2.74063636227933
C           14.58937019668514        0.09480665269903       -3.30982226169888
C           15.69438747475625        0.11874200625050       -3.82906883332920
C           16.95465948124753        0.15489441952385       -4.45619228394222
C           17.47273498478304        1.37093406525158       -4.88643567826391
C           18.69300431527657        1.44060201539155       -5.51754776690615
C           19.44220318670245        0.29152731586409       -5.74159868548138
C           20.68562217555649        0.35882430134546       -6.40186820632211
C           21.75164274198012        0.42708393798540       -6.99294454516819
C           22.96891801689195        0.52613472629468       -7.69681619802796
C           23.47851824768822        1.78026273751073       -8.01214572735294
C           24.66084068749480        1.91234247955495       -8.70547596422919
C           25.35819377941703        0.78926693226609       -9.09826755410106
C           24.87227850107584       -0.46231353496237       -8.79574343947984
C           23.68145670808560       -0.61618573666654       -8.09646601005054
C           23.21781618031020       -1.90974665847594       -7.80699078114408
N           22.83976370153762       -2.98220955015578       -7.57398724373579
C           18.93254246118209       -0.92395218852784       -5.30992870325278
C           17.70377195956121       -1.01326315399502       -4.67152779448296
C           17.23719193950703       -2.27268785582689       -4.26116741209105
N           16.86354036688175       -3.31853607550248       -3.92367209194442
C           12.68352533648199       -1.12572541042777       -2.42512587028179
C           11.40735145675794       -1.16902436788166       -1.88237235093331
C           10.83309729733231       -2.41585219566860       -1.58613036413485
N           10.36773063741010       -3.45238966354091       -1.34881885827829
C            6.25833687527419       -1.09756135983707        0.04314469093950
C            4.95841539987165       -1.07246550429999        0.49488039622463
H            4.48471780448054        2.25591555600543        0.60146423404467
H            6.81072757402623        2.21088728121142       -0.20774226033528
H           10.81843218679212        2.15572025641983       -1.77833424690079
H           13.08246794873757        2.19583195678447       -2.73710690996684
H           16.89857940856033        2.26687640877358       -4.72134503211905
H           19.08027411219014        2.38915792130253       -5.84852621904152
H           22.93102282297505        2.65558953918417       -7.70587870284396
H           25.04074644355651        2.89290865772550       -8.94178268259262
H           26.28312324280094        0.89194145431019       -9.64229860890275
H           25.41372216510353       -1.34210608993021       -9.10030378452988
H           19.50210712694067       -1.82089134138644       -5.47673952492915
H           13.20470448801579       -2.04799261455971       -2.61064809344291
H            6.75818860646885       -2.03737887001049       -0.11696245025050
H            4.43321894116025       -1.99165903655378        0.69237541823013
