52
 energy: -12.490568532531 gnorm: 0.000592385008 xtb: 6.5.0 (97a52f5)
N            1.36867015641459        0.11564557033342        0.55168972285858
C            2.50786643191116        0.13737565079016        0.32838702337192
C            3.88545941019410        0.16848259115823        0.05916019287847
C            4.55476990707086        1.37903112248708       -0.07470054758737
C            5.90563544583869        1.40950332583739       -0.33779880720183
C            6.63042499087752        0.23030045473425       -0.47542555655559
C            8.01240302334513        0.25963153955721       -0.74258021016911
C            9.21229624064704        0.26813884135679       -0.97632839693083
C           10.59004823645544        0.26637145329450       -1.24782605177696
C           11.25949821174254       -0.94842919840084       -1.37364982968000
C           12.60624137425473       -1.00557210735209       -1.64274978780798
C           13.35437759131521        0.16306019777109       -1.80199982284872
C           14.75246750692037        0.13529303168972       -2.08556564835447
C           15.45748988184695        1.27827865540961       -2.24272768067160
C           14.82965762046929        2.55464731405068       -2.13048472600832
C           15.53815259046333        3.74694630027788       -2.29511482715615
C           14.90659588836786        4.96263691205581       -2.18295061916063
C           13.54569235974862        5.05635258180189       -1.90210901786670
C           12.94971866006670        6.32389741745782       -1.80144757401447
C           12.44254137222775        7.43323667776939       -1.71985959728408
C           11.87471408231965        8.71897964578332       -1.63744935847295
C           10.49444453744036        8.89011065357154       -1.61893479140503
C            9.94195116117406       10.14859391291142       -1.54082248919337
C           10.75191848088070       11.27625026300017       -1.47869287327751
C           10.18857969077512       12.55992923158172       -1.39949870854770
N            9.72095319284073       13.62070701908000       -1.33517113341954
C           12.13105009197119       11.10733449463952       -1.49709117318709
C           12.68348275403596        9.84901743357991       -1.57511610721158
C           12.79662902503811        3.87255102262094       -1.72861288821236
C           11.39875316614130        3.89211123168580       -1.44005402608536
C           10.69371639789455        2.74942329338800       -1.28404253800891
C           11.31357381322024        1.46877548329299       -1.40004139738714
C           12.70144644148933        1.41287292255051       -1.68051734376883
C           13.44478771383068        2.61779833577016       -1.84561263178218
C            5.95830942780720       -0.98020523273155       -0.34205666375298
C            4.60756298382905       -1.01069783179900       -0.07898147657301
H            4.00044035239005        2.29594530035770        0.03062559744861
H            6.41754145071393        2.35097272475058       -0.44006856232639
H           10.69727139647530       -1.85913442119854       -1.25643186457233
H           13.09847976763216       -1.95801757505798       -1.73550243112186
H           15.24157004602438       -0.81913252537498       -2.17420037994435
H           16.51119067946085        1.23944314676312       -2.45760259572581
H           16.59097437328570        3.70336510507164       -2.51357151636440
H           15.46749216003883        5.87215209956664       -2.31489044732699
H            9.86064551043679        8.02134949071670       -1.66820112473936
H            8.87262353439505       10.27300739625783       -1.52738216826380
H           12.76392259855809       11.97702592217748       -1.44947531453321
H           13.75290221855230        9.72579382607872       -1.58989977663546
H           10.90795358872306        4.84474030665669       -1.34715337036384
H            9.64094376031830        2.79137403938891       -1.06744160516542
H            6.51157310212042       -1.89769610389222       -0.44761341834902
H            4.09436559999101       -1.95166894328644        0.02287634026068
