26
 energy: -6.245311932020 gnorm: 0.000787450651 xtb: 6.5.0 (97a52f5)
N            1.37847662590962        0.13939206864793        0.51526931051914
C            2.51562433765421        0.13401580304319        0.28157831171732
C            3.89218709578719        0.12583592811841        0.00546079956692
C            4.58716124239301        1.31632508180188       -0.16632250965271
C            5.93601522055306        1.30868056792115       -0.44017372567567
C            6.63277201259860        0.11066087677300       -0.55082063914638
C            8.01261099141729        0.10690187910656       -0.83861182492545
C            9.20767640727751        0.12149342492626       -1.08831663559280
C           10.58527772108304        0.16176779287229       -1.38451620899209
C           11.22565136529214        1.39013245656262       -1.50114676628973
C           12.56874300851838        1.46596336885530       -1.79488786579472
C           13.30032041081523        0.31143735203995       -1.97831767088823
C           12.68668250072506       -0.91536763149377       -1.86690869836380
C           11.33239594797484       -1.01285959814130       -1.57125086161403
C           10.74233123673833       -2.28287561287226       -1.46873886251667
N           10.26182921867419       -3.33633869010884       -1.38550499110964
C            5.93563639044327       -1.07943581443357       -0.37607476229693
C            4.58672660173666       -1.07236285334117       -0.10243301286521
H            4.05395114550802        2.24815163895857       -0.08293676715363
H            6.46819767991841        2.23509943953339       -0.57381410733269
H           10.65163837421044        2.29008004041638       -1.35916715732234
H           13.04830286045106        2.42714164804314       -1.88307119790713
H           14.35142799716036        0.37000282166168       -2.20995585910486
H           13.25368633704300       -1.81975703428221       -2.01001743806601
H            6.46700967682320       -2.01184965671155       -0.45908565432479
H            4.05305759329703       -1.99820529788351        0.03030479514997
