16
 energy: -3.746623217805 gnorm: 0.000902044529 xtb: 6.5.0 (97a52f5)
N            1.28950972667674        0.04479354046828        0.22386344669430
C            2.44251682806668        0.03328801032435        0.09009268369445
C            3.83704956330831        0.01585041816453       -0.06723064767516
C            4.56005831215296        1.20378501427966       -0.13146435019199
C            5.92746727454564        1.18349546331707       -0.28317053641577
C            6.61794289031911       -0.01627966628913       -0.37525958617422
C            8.00738096697903       -0.01713002011189       -0.52905130627673
N            9.16201522924419       -0.02625478118842       -0.65271078994012
C            5.90154869176757       -1.23123761902202       -0.31270189404874
N            6.55870196166292       -2.44550789531926       -0.40161253176018
C            4.51638211674210       -1.18616507810793       -0.15619560674644
H            4.03281070024105        2.14044883936810       -0.05916940013472
H            6.48072978850666        2.10655902882379       -0.33434338148232
H            7.53604118911637       -2.51112792322113       -0.62259697646887
H            6.07651631251306       -3.32243655437956       -0.48697059381093
H            3.96320844815777       -2.10592077710592       -0.09730852926264
