44
 energy: -9.613417528852 gnorm: 0.000590916340 xtb: 6.5.0 (97a52f5)
N           -2.61276016564524        1.58981264798043       -0.23158043535965
C           -1.48803483343530        1.30908260862640       -0.16195634109394
C           -0.12888538696166        0.96999828326906       -0.07910793852971
C            0.71729737504213        1.64279275505139        0.79542050479993
C            2.04763166232163        1.30900058893329        0.87608775204632
C            2.58415578086810        0.29273171077937        0.08476891012857
C            3.99120169412582       -0.02906869028767        0.18186725872181
C            4.70554390857432       -1.03410579575980       -0.36405526634275
C            6.15488986507378       -1.07008233122978       -0.04230128282742
C            7.05901872412113       -2.01255238822937       -0.49300356014589
C            8.41581228797201       -1.93708486508824       -0.10586975827869
C            9.36619919237560       -2.88638079582309       -0.54686261942966
C           10.66894891105056       -2.79780267588331       -0.16155749755209
C           11.09226051365777       -1.76254509220182        0.68021611429381
C           10.20631315020253       -0.82879664928388        1.12589703959070
C            8.84788507576882       -0.88689669915065        0.74882494228285
C            7.90585185928590        0.07190471906543        1.19974901155610
C            6.61684054937428       -0.03714244487525        0.80659150050541
P            5.15840100859969        0.94424223656621        1.14021785172215
O            4.79395239725577        0.98668352400192        2.64585309883578
C            5.32207132181163        2.58678842365733        0.44069909043576
C            5.25218903767748        3.67652384900825        1.27360817100954
C            5.37295497052418        4.94915043952582        0.74487126617350
C            5.56262427331288        5.11256648717446       -0.61338659020166
C            5.63175029412237        4.01059421018134       -1.44329791831972
C            5.51104121417111        2.73946145480732       -0.91205311839431
C            1.73028670650001       -0.38165093993653       -0.78937455528889
C            0.39853970329944       -0.04691810101436       -0.86809504863713
H            0.31442861268899        2.42848653504791        1.41163318533337
H            2.69516303185153        1.82186846969671        1.56570197141286
H            4.25775412885791       -1.78940617781557       -0.99346992655786
H            6.72833763333558       -2.80551155314328       -1.13775571443540
H            9.04371354078029       -3.68379361273788       -1.19372880683324
H           11.38247987062785       -3.52880249860057       -0.50497816416560
H           12.12695806862709       -1.70680181269313        0.97623119885419
H           10.53386836646359       -0.03382343035759        1.77324808768516
H            8.21028831666780        0.87430689866642        1.84747753953385
H            5.10211668634216        3.52465572927412        2.33112407558953
H            5.31854379808979        5.80916578148920        1.39175278708472
H            5.65636738963913        6.10313298461268       -1.02721555097680
H            5.77935275050798        4.13968567921759       -2.50287780102953
H            5.56191666828867        1.86800389169789       -1.54541529156357
H            2.12407357648269       -1.16675224384912       -1.41041757831715
H           -0.25408353029302       -0.57058111038094       -1.54584059331830
