38
 energy: -8.222410240617 gnorm: 0.000762051721 xtb: 6.5.0 (97a52f5)
N           -2.62805272298721        0.85392243071928       -0.54146372459546
C           -1.49703612603504        0.63176265368541       -0.39992780829873
C           -0.13090907386788        0.35834177155608       -0.23281479609554
C            0.69062041215794        1.24686111787229        0.45171323532633
C            2.02803550409443        0.97805764885697        0.61435679052315
C            2.59543530284841       -0.18628985267230        0.09637431651143
C            4.01344503284222       -0.42874372316107        0.25713670144728
C            4.74596874460872       -1.53996204202970        0.04597255146760
C            6.20282730751971       -1.43591547814833        0.32571152511030
C            7.13781637755067       -2.46862289300409        0.19252444226909
C            8.46231305890687       -2.22995468801925        0.49768043790503
C            8.87621197304293       -0.98239371372818        0.93475107343431
C            7.96451834075724        0.04875189231895        1.07274226588682
C            6.64959303504162       -0.19033143592697        0.76821107164742
P            5.17644935426274        0.83050959455473        0.80303443984210
O            4.84350606148243        1.35779595408088        2.22138353746747
C            5.30390080972792        2.16966282765856       -0.38825023494878
C            4.65568099439193        2.09339159112054       -1.59834000668151
C            4.77098870909099        3.13241426550818       -2.50262966867430
C            5.53683885379598        4.23708565026444       -2.18659870590243
C            6.18492796800347        4.30604686957506       -0.96917619620039
C            6.06646758326662        3.26562545255902       -0.06523803679608
C            1.76635995360092       -1.07765570653149       -0.58555634104399
C            0.42742719765359       -0.80742561401370       -0.74624182420895
H            0.26330140064883        2.14886281749590        0.85524076516840
H            2.65835130777535        1.65984729582168        1.15852096689552
H            4.30898470436967       -2.46978613063019       -0.28840183481450
H            6.81412069323524       -3.43766756210174       -0.14418921632857
H            9.18309011956979       -3.02433962684036        0.39516491722279
H            9.91425041014917       -0.81298350651136        1.16891361472558
H            8.26844897975226        1.02346051896573        1.41397904220781
H            4.05695205085891        1.22761227300569       -1.82933296326319
H            4.26281989455780        3.08045794176548       -3.45133641912782
H            5.62784420651553        5.04732560569335       -2.89116391052467
H            6.78178812210380        5.16863294344490       -0.72291462433601
H            6.56005225821010        3.30508479428819        0.89321766432802
H            2.18597224895762       -1.97857352992101       -0.99705819906546
H           -0.20647104845317       -1.49831840758203       -1.27547484847745
