37
 energy: -8.028455218430 gnorm: 0.000491426765 xtb: 6.5.0 (97a52f5)
N           -3.06271464123359        0.57562992750680        0.12816588487740
C           -1.90962500301465        0.43720604474910        0.15195184421551
C           -0.51716207689343        0.27069800063877        0.18332070644092
C            0.33065521467985        1.29377274364400       -0.22781746682209
C            1.69558924672906        1.13206475808492       -0.19673708899034
C            2.27033032780516       -0.06543270476093        0.23794976387997
C            3.71921025815159       -0.19066873654260        0.28323371431009
C            4.45397968795230       -1.33612614293076        0.26002738146890
C            3.83875481626141       -2.66437892657996        0.02143399492174
C            3.96037966996136       -3.68233730292424        0.96618200586582
C            3.39350031373447       -4.91769328136359        0.74469696427815
C            2.70247644334469       -5.16301073477639       -0.42486743855026
C            2.58017660832662       -4.16935865233515       -1.37547347667422
C            3.14392916664128       -2.93199731239386       -1.15770397387811
C            5.92265728186493       -1.27270544957517        0.41869883314520
C            6.74350650900212       -2.18701185259009       -0.24079386119621
C            8.11217668931986       -2.14507400228197       -0.09322022615801
C            8.69106206683704       -1.19174514553531        0.71969793082551
C            7.89587964840903       -0.28157186281725        1.38641531809549
C            6.52655803373362       -0.32018011537025        1.23981862675455
C            1.41067742341699       -1.08232804615558        0.66125928801379
C            0.04666756569700       -0.91917429259234        0.63103472138518
H           -0.09925331612086        2.21912589852926       -0.57142734539361
H            2.33905654971195        1.93303311628962       -0.51771379536770
H            4.26216303681384        0.73704555726812        0.33130386106393
H            4.50185243090332       -3.48642750025662        1.87556081298975
H            3.49108486702616       -5.69444025368137        1.48530884531295
H            2.25974192929029       -6.13049103742998       -0.59631642249597
H            2.04195109244798       -4.36208233929263       -2.28893234167075
H            3.05183061284315       -2.15429098341287       -1.89607594414272
H            6.29156627954786       -2.93031694307983       -0.87441864448283
H            8.73130588807486       -2.85790232001392       -0.61283304224778
H            9.76202213108469       -1.15985359223993        0.83573081330648
H            8.34704087703735        0.45865678291280        2.02682091954764
H            5.91033586572158        0.37677253934159        1.78061478621571
H            1.82602155273714       -2.00236100270711        1.02990084352348
H           -0.60295504784515       -1.71348483532622        0.95702320763528
