80
 energy: -18.786002552413 gnorm: 0.000651429419 xtb: 6.5.0 (97a52f5)
N           -2.82949106793481        0.30135169559426       -1.15826935336733
C           -1.69993344345642        0.25639505743450       -0.89332339606317
C           -0.33475099704347        0.20180211267951       -0.57360362810538
C            0.54309689986987        1.17052891635647       -1.04927271452106
C            1.88014306813231        1.12015717884741       -0.73608710973775
C            2.38479000140585        0.09963068985937        0.06567403475799
N            3.78015956805312        0.03571526237711        0.39554290544452
C            4.52689055559217        1.25214996192476        0.54409227003560
C            3.96633514176088        2.36292579484985        1.16918626773571
C            4.68992340547120        3.52093659971748        1.32209843489496
C            5.99820164476084        3.60759066032210        0.85691940611745
C            6.73507025600185        4.79168179002015        1.01193632528483
N            7.34567546344723        5.77124801873220        1.13834264958588
C            6.56043629636858        2.49729338786763        0.23538982946864
C            5.83756923094019        1.33897380340554        0.08226346932448
C            4.43288765790528       -1.23729161696312        0.44328762407075
C            4.18688663590388       -2.16931296705585       -0.55055870378877
C            4.82006885208236       -3.39275077106998       -0.56507715387545
C            5.73025146493920       -3.76155428387431        0.42297391814083
C            6.40851253896622       -5.04905553590657        0.40445889138464
C            6.20677778902087       -5.97288982366751       -0.61474917116792
C            6.83548632780448       -7.20627062245611       -0.61128166705808
C            7.68660924273614       -7.54403174205722        0.40312202853767
C            7.95173989113752       -6.65124339795462        1.45148564850472
C            8.82679945591044       -7.01176766260248        2.52210693447583
N            9.51752380564155       -8.26593374337046        2.54135287336085
C            9.54484930136148       -9.03718307540960        3.75101299137048
C            8.42658622483584       -9.08479220261547        4.57925952841894
C            8.44214877372828       -9.81992558410878        5.73995252983768
C            9.57775856490389      -10.53093904639721        6.11408825521657
C            9.59320332210282      -11.28374498942241        7.29825057187390
N            9.60651970069818      -11.90595481167348        8.27855710470247
C           10.69771484064825      -10.48012624766223        5.29034644144032
C           10.68237860691851       -9.74559725448641        4.12901563755997
C           10.27650529851087       -8.70311093921599        1.40436127852254
C           10.93646487580702       -7.78001224077686        0.59760894508643
C           11.64694583196786       -8.19188369472090       -0.50383720914430
C           11.71954508036960       -9.54037954302630       -0.83787797617302
C           12.44497756121590       -9.96074771794548       -1.96311297409713
N           13.04446445412602      -10.30715541442541       -2.89523645602426
C           11.05785097865977      -10.46337629343145       -0.03430959398668
C           10.34835623866809      -10.05249503749577        1.06834623667712
C            8.99365019468926       -6.12177512687804        3.56948411796043
C            8.36866822037924       -4.89395131933468        3.57842986781034
C            7.52749300083136       -4.48878418377858        2.54441104747441
C            6.87094967949984       -3.18985218166875        2.54821507875115
C            7.07035523970573       -2.26727771744420        3.56899455760259
C            6.41945191545880       -1.04552967706448        3.58037364272687
C            5.56316391658302       -0.71012387022315        2.56950262199470
C            5.33573381084826       -1.58309209467201        1.49575597379954
C            5.98510877480643       -2.84674676509663        1.48438669583120
C            7.29978760369608       -5.38906852296086        1.46462579820132
C            1.50541600832959       -0.87142689051651        0.53741268144952
C            0.16847086675647       -0.82053257888929        0.22431449360240
H            0.15909952328715        1.96247374877379       -1.66947158689531
H            2.55636562687348        1.86393252358712       -1.11933079745939
H            2.95996267841492        2.29626671942181        1.54392722344353
H            4.25074961934694        4.37649130384052        1.80618443122515
H            7.57306471956575        2.55807080480125       -0.12516556190204
H            6.27542211777262        0.48307467525530       -0.40061012751888
H            3.50065454114732       -1.90848709991371       -1.33731809093514
H            4.59558626702289       -4.07169535828912       -1.36637617365269
H            5.54751544083716       -5.73923635890971       -1.42984021485106
H            6.65040479317248       -7.90446977893145       -1.41122110430860
H            8.15888328104846       -8.50889425292801        0.40791679868191
H            7.54321880917668       -8.54339423800823        4.28914141128326
H            7.57218028118210       -9.85499625735047        6.37334685265878
H           11.58061066707130      -11.02562684428074        5.57685730213223
H           11.55658270116270       -9.69909464911544        3.50373563929601
H           10.88325730728930       -6.73633170645189        0.85321785903270
H           12.15645256031394       -7.47301903550622       -1.12252219551660
H           11.10762948667996      -11.50783844292075       -0.29076017418198
H            9.82603329187450      -10.76882850393808        1.67797702108171
H            9.64720136369229       -6.40033974572902        4.37767566192290
H            8.54131979989799       -4.24208121474143        4.41438701568081
H            7.74082150628025       -2.49478568414710        4.37665206924127
H            6.58699964579511       -0.35670571125565        4.39220645003672
H            5.04938427760063        0.23306339817074        2.59281502613422
H            1.88934188637433       -1.65910233689136        1.16178585186060
H           -0.50626076441519       -1.57302969621942        0.59541691156447
