72
 energy: -16.362310993868 gnorm: 0.000657074983 xtb: 6.5.0 (97a52f5)
N           -1.66986721351590       -4.50852205343616        3.23050808390870
C           -0.78866819572342       -3.85862034181301        2.84331079200161
C            0.27451166797804       -3.06895850988687        2.37886038108136
C            0.03172800164300       -1.85627118577912        1.74106382929569
C            1.07183732203695       -1.08216569552429        1.28586856766316
C            2.39143322884810       -1.49477316771462        1.45282678013077
N            3.47777532611203       -0.69815281963996        0.96004897540185
C            3.40770145250118        0.73365684786730        1.06223665694792
C            3.96843517487466        1.53658293699780        0.07290317703371
C            3.91582403581864        2.90865222710820        0.16851420461905
C            3.30413893002921        3.50351972375103        1.25444288665355
C            2.74580125001347        2.72028345910452        2.24562661628305
C            2.79681168870888        1.34777096655738        2.15201903383232
C            4.68249826091920       -1.30275542953769        0.47502591058136
C            5.91545102281029       -0.81781597008011        0.91956042470681
C            7.10018379601746       -1.36381011028033        0.50052447582543
C            7.11724182421509       -2.42966544291702       -0.40862361866427
C            8.32954606756866       -3.02068768738480       -0.85698375885426
C            8.32254870806012       -4.03365579078623       -1.75781037713199
C            7.11175451801304       -4.54122257914943       -2.30044024488430
C            7.09332110657404       -5.58937985909485       -3.25623253399661
N            8.30421263744648       -6.12411709476383       -3.80394088669977
C            8.43538119276786       -7.54201361473468       -3.99151774848621
C            7.89593989099816       -8.42854066435788       -3.06366327634038
C            8.01720143952706       -9.78854360434882       -3.23893762426450
C            8.67811716828202      -10.28815443326222       -4.34386644692289
C            9.21625298809455       -9.42157242629614       -5.27478720408795
C            9.09531876583542       -8.06127995759238       -5.10196766872661
C            9.32427549501399       -5.24725677019412       -4.30513228220751
C           10.67292839837808       -5.57085097516388       -4.17855109831144
C           11.64517233231794       -4.71733007962830       -4.64220606822417
C           11.30327585764310       -3.51213829249632       -5.24822134846749
C           12.29639082835006       -2.64130815431853       -5.72256498217518
N           13.11472161419199       -1.91981943156625       -6.12082282970682
C            9.95604270115948       -3.18730039936196       -5.37372625784067
C            8.98342123049255       -4.03978240837898       -4.90990838264130
C            5.86146861809575       -6.08277704927083       -3.69459029649764
C            4.67537286980450       -5.55339968329423       -3.25694991164248
C            4.65588759913272       -4.49415345753274       -2.33940081161952
C            3.44353280660721       -3.90199881743300       -1.89237939625221
C            3.45037034459417       -2.88159356738343       -0.99958325734922
C            4.66073296452247       -2.37187866227226       -0.45751450122194
C            5.88630090919746       -2.93040403006688       -0.89875408455550
C            5.88592719507171       -3.99300242722269       -1.84832338610694
C            2.63348853642747       -2.70839598622426        2.09163280597596
C            1.59280325110382       -3.48192452090010        2.54675421492344
H           -0.98617364935157       -1.53220329338765        1.60721100094264
H            0.87794757884050       -0.15177395701298        0.78165665696352
H            4.43879702734151        1.06558649648744       -0.77242408652709
H            4.35182678500001        3.51915547913016       -0.60510529424338
H            3.26361205020369        4.57781581473052        1.32884974354625
H            2.27183399727459        3.18447692051717        3.09484733586693
H            2.37577101194857        0.73257456116585        2.92768843933136
H            5.91811958394911       -0.00366194288589        1.62286274758235
H            8.03441146683223       -0.97614146764912        0.86802333871044
H            9.26118438339703       -2.64815000379989       -0.46796169895482
H            9.25034768729750       -4.47102923973307       -2.07718848386118
H            7.38920619369394       -8.03242586611356       -2.20120514956380
H            7.59710181320318      -10.46426855376729       -2.51217742660602
H            8.77385015601000      -11.35292030526869       -4.47961211199594
H            9.73034129560401       -9.81105366171919       -6.13811580843069
H            9.50176279075815       -7.38296478653658       -5.83134812704144
H           10.94306798471263       -6.49530900719862       -3.69902976708238
H           12.68606062933963       -4.97215099724259       -4.53914338514968
H            9.68520387889794       -2.25585868090957       -5.84079622641963
H            7.94297724533219       -3.78520165141212       -5.00983978152766
H            5.86029866632177       -6.88059317686504       -4.41633332820106
H            3.74164614959024       -5.94220675406488       -3.62448114216358
H            2.51200804891883       -4.27520801739704       -2.28101410355891
H            2.52253890404847       -2.43850459721039       -0.68870917094680
H            3.65113742743527       -3.03119548100037        2.22373324913011
H            1.78705528476816       -4.41917084113479        3.03955504725922
