22
 energy: -4.431584863559 gnorm: 0.000763860008 xtb: 6.5.0 (97a52f5)
N            1.23050338050896        0.02807943584797        0.41013427994566
C            2.37833706796319       -0.02429320074190        0.24418486290136
C            3.76526759578290       -0.08845342077614        0.04574657167780
C            4.52159922493364        1.07602905852342       -0.06186087279282
C            5.87701419534526        1.01201406412455       -0.25337575009156
C            6.53734120632304       -0.21793115454754       -0.35011129193790
N            7.89721434420882       -0.25087554179905       -0.58570412369023
C            5.78047270685887       -1.41047406652279       -0.22797602670580
C            6.44270709519145       -2.70820886846994       -0.26326466840000
C            5.88747397817678       -3.84154666342845       -0.67200379900739
C            6.67904646820417       -5.12077984004554       -0.66156754273711
F            7.36881405464809       -5.21476058227500       -1.81128770525831
F            7.53015355350693       -5.09121160967004        0.37851607443018
F            5.83619362887252       -6.16059979932132       -0.54277513294332
C            4.40725448803076       -1.31407277677007       -0.03515520691853
H            4.02433883855798        2.02983750193575        0.00775487327233
H            6.45159214634267        1.91839543002741       -0.33868275703135
H            8.42708183275108        0.58336322501810       -0.76637524488905
H            8.38488011522454       -1.07612179841993       -0.88841878834042
H            7.45787090635095       -2.76122355267758        0.09413129690056
H            4.88535946430318       -3.87461096566596       -1.05614778122859
H            3.82139370791289       -2.20879487434540        0.08125873284487
