16
 energy: -3.747111068083 gnorm: 0.000946632840 xtb: 6.5.0 (97a52f5)
N            1.32168408312523       -0.01507066298250        0.26525095260479
C            2.47478640670050       -0.02969201499679        0.13087767819494
C            3.86741508474482       -0.04866019135544       -0.03072920357990
C            4.59363538705983        1.13817490783003       -0.08403619374573
C            5.95678835714379        1.11916823664670       -0.23777792621610
C            6.65190629042446       -0.08894012933614       -0.34419059770843
N            8.02441429001780       -0.09830701083208       -0.49138095921226
C            5.92230283593049       -1.29763994962395       -0.29175957319913
C            6.57442982007686       -2.53141302815916       -0.39514716249319
N            7.12250307501566       -3.55154148051929       -0.47870937664889
C            4.54757673885585       -1.25428805255979       -0.13633834055510
H            4.06721341931713        2.07483114595662       -0.00356562991577
H            6.50940343231284        2.04175272410151       -0.27681773723564
H            8.57966899009988        0.73449798135142       -0.57453913985277
H            8.55521670169300       -0.94412097840177       -0.60328655665843
H            3.99295508748136       -2.17609149711957       -0.09580023377850
