16
 energy: -2.822645747677 gnorm: 0.000868298425 xtb: 6.5.0 (97a52f5)
N            1.48178512306466       -0.13293318064680       -0.16720167817950
C            2.58274934465545        0.22592143903544       -0.08784453893467
C            3.88211123897215        0.62175201555648        0.00075210505918
C            4.98753911502713       -0.14835867294302       -0.03214500951804
C            6.23769060255709        0.31662551836685        0.06215427671210
C            7.38747317274234       -0.43209750462542        0.03175786449180
N            8.58787588308122        0.17954897154605        0.13369230079624
C            7.33815603237000       -1.80266409926835       -0.10292570014249
N            6.36833441601909       -2.73792445492227       -0.23630305558442
O            5.59144830743102       -3.53600769489841       -0.34835866366983
N           -1.32974038311464       -7.09044846196013        0.44861790490715
C            4.85042683364973       -1.47139752704034       -0.16851720377801
H            0.62239689534684        5.95380204958262        0.99609545833092
H            6.67419439869566        6.35586844500070       -1.30999215812448
H            8.60525659335043        1.15482482540601        0.23315214836511
H           10.15398242058060       -1.43955166985825       -0.30498404990885
