15
 energy: -3.256442489223 gnorm: 0.000479659908 xtb: 6.5.0 (97a52f5)
N            1.27794666089274        0.05125251503261        0.30316385521908
C            2.43342546626922        0.06729695082591        0.18728381566846
C            3.82908222920386        0.08714515284092        0.04907512819609
C            4.51849123321013        1.29439036159537       -0.02410704446765
C            5.88487349939123        1.31601539604954       -0.16210031706421
C            6.61502701531383        0.12627014824902       -0.23206048670244
N            7.99384941861434        0.14549706253564       -0.37256556618302
C            5.91920368828363       -1.08346558182563       -0.15636115112860
C            4.55280339549047       -1.10016207782642       -0.01835153468333
H            3.96267703261627        2.21502087239422        0.03058340898893
H            6.41063156167867        2.25287695171336       -0.21542017098078
H            8.49092614020801        0.98663761093702       -0.60676149501192
H            8.51388960845280       -0.68165039423875       -0.60675565748707
H            6.47172223306341       -2.00528274747423       -0.20207534758385
H            4.02320081731139       -2.03596222080857        0.03832256322033
