16
 energy: -3.748046575139 gnorm: 0.000538445203 xtb: 6.5.0 (97a52f5)
N            1.10516027291070        0.02471031086034        0.18323366069537
C            2.26053448681105       -0.00230296167419        0.06858965984121
C            3.65461419378626       -0.01975314029977       -0.06804511989982
C            4.35082485693204        1.18423142725614       -0.11139575819285
C            5.71593877630385        1.20914570438795       -0.24689020779038
C            6.44330579289635        0.02015264922832       -0.34499748095536
N            7.82046024786575        0.03827288096651       -0.48106584987736
C            5.74701412561536       -1.18719573717031       -0.29773777778411
C            4.37064101971400       -1.22649943079887       -0.16200115729732
C            3.72334087037720       -2.47154843797069       -0.12215266433583
N            3.20157712572488       -3.50795862915510       -0.08868762296828
H            3.79750075965411        2.10579689528416       -0.03681098938472
H            6.24195426952665        2.14738422099037       -0.27769950617566
H            8.34624937733849        0.88541954419303       -0.60006267428645
H            8.36443153795834       -0.79032127051112       -0.64250513353427
H            6.29244228658488       -2.11089402558662       -0.36718137805409
