40
 energy: -8.849649869615 gnorm: 0.000735249660 xtb: 6.5.0 (97a52f5)
N           -2.10197511725435       -0.79239608160595        0.03836010740786
C           -0.95159309560541       -0.62969650162468        0.06548795737624
C            0.43479014606705       -0.43535935706118        0.09243980925414
C            1.00346651933198        0.69963162881121       -0.48221911985791
C            2.36215845278558        0.89023414289571       -0.46210518663166
C            3.20450701781618       -0.05345219147774        0.13496625709549
N            4.63057476501088        0.13542876892219        0.14243255782596
C            5.26185109658531        0.83734687576275        1.24751349573951
C            6.59470391087310        1.10656222697706        1.28889558117413
S            7.05355851768351        1.95557521915170        2.74414977121280
C            5.41583329125926        1.97839794154843        3.33567196707178
C            4.94168715980792        2.53079721630836        4.51645321547056
C            3.60138696607689        2.44716279210338        4.80586185515411
C            2.73247245309947        1.81618013026492        3.92071425440508
C            3.19672576558231        1.27101734841550        2.75085705330249
C            4.56359261839120        1.34018290453818        2.42896928831132
S            7.79982618696234        0.69654359993190        0.07824687749955
C            6.77552673042710       -0.18083920929086       -1.04683088658049
S            7.45907861753429       -0.92663599171864       -2.47054843408868
C            5.90691191125280       -1.51420583672193       -2.99761363213149
C            5.61374382792112       -2.24810053419633       -4.13767893949961
C            4.31328190157632       -2.61610837040099       -4.38369467227842
C            3.30404615221005       -2.25389110694159       -3.49673694661782
C            3.58979083510881       -1.52853416917899       -2.36827430248871
C            4.91179399182215       -1.13982002281977       -2.08923885676538
C            5.43164278310669       -0.37265357604664       -0.95880246126312
C            2.63067006595332       -1.19113421860166        0.71369749571350
C            1.27111405335616       -1.37526536455180        0.69130054661836
H            0.35932165799585        1.42665567746534       -0.94641805160783
H            2.80111255655273        1.76503263825597       -0.90846891562036
H            5.62778658169087        3.01720251314730        5.18800284114944
H            3.22111969513958        2.87124698900271        5.72051759088714
H            1.68329803796792        1.75521076747294        4.15909486014148
H            2.51015363233995        0.79337863565201        2.08121389865488
H            6.40693933092105       -2.51783864878689       -4.81324670451015
H            4.07303141091090       -3.18562086740747       -5.26631550629266
H            2.28701396046290       -2.54630004033535       -3.70042821479965
H            2.79671402727974       -1.25630511400744       -1.70136342259379
H            3.27634644433461       -1.91847840596779        1.17337304479916
H            0.83403513966524       -2.25295240788152        1.13580392736347
