41
 energy: -8.788395666160 gnorm: 0.000776514379 xtb: 6.5.0 (97a52f5)
N           -3.04033133444696        0.01726446761864       -0.58008150147511
C           -1.89453545526306       -0.01713401392094       -0.39731999131251
C           -0.50998009002722       -0.05505579177932       -0.17462383242116
C            0.25319503730307        1.10467752664335       -0.25830762184181
C            1.60775728668731        1.06951618937664       -0.03885279332602
C            2.24913070849904       -0.12956426969540        0.26732583384021
O            3.63518862321374       -0.12089846208825        0.49156091715915
C            4.36048268237500       -1.31989772257824        0.41164294227823
C            5.13589988038639       -1.71620335453093        1.49401743224403
C            5.84356530827359       -2.90108483436561        1.47812434402427
C            5.81666271630362       -3.73422679453933        0.37869291366795
C            5.06511862190978       -3.36090239761072       -0.76160479307922
C            5.04373035349047       -4.18454566397970       -1.91362962964458
C            4.33304971479749       -3.78427263063492       -3.01994033521020
C            3.64049558718915       -2.57919144999374       -3.02476987653742
C            3.64552232489775       -1.77401234878964       -1.91957619226641
C            4.34038232666648       -2.14724690169057       -0.76011075032522
C            5.78217941524177       -5.45245930614642       -1.91978923633047
O            5.75703606395622       -6.18140040932501       -2.89518320401881
N            6.50602328564176       -5.79183252850593       -0.76816317770380
C            7.25962475718840       -7.03827796094263       -0.75346874067218
C            6.39272206259139       -8.24439586306218       -1.06948344998605
O            7.06492984115517       -9.47876095299073       -0.94481664493473
C            6.56805412642751       -4.98769776150487        0.37832101718618
O            7.22941300520333       -5.32455548350042        1.34574578982859
C            1.48035923257438       -1.28937181412821        0.35888920722193
C            0.12589909114178       -1.25159985408358        0.13912776475886
H           -0.23520741863235        2.03434503641423       -0.49655873251538
H            2.20078074861335        1.96515887015738       -0.09980231942178
H            5.15822005516171       -1.07937106843054        2.36062677567903
H            6.42987231942102       -3.19800909696966        2.33140269523530
H            4.32955435578005       -4.42144910806247       -3.88825888297837
H            3.09865351129115       -2.27905904386222       -3.90677240118789
H            3.12155262936130       -0.83475458220414       -1.93103588597276
H            7.70694123140479       -7.15395273338957        0.23886940132306
H            8.08084402967840       -6.94922343875213       -1.46977530116243
H            5.98149993392943       -8.16411586278615       -2.08402241508704
H            5.53555220439852       -8.28111922370728       -0.38565396604696
H            7.83484769294505       -9.52440616850379       -1.54130176242130
H            1.96391391935803       -2.21556618453784        0.61331337554638
H           -0.46224038609069       -2.15088700862388        0.20977302788732
