46
 energy: -8.120039248915 gnorm: 0.000343298181 xtb: 6.5.0 (97a52f5)
C            1.11350634857156        0.44138536853525       -0.28136726121575
C            2.59303934617327        0.14250128311069        0.02788863225178
C            3.44239120817244        1.31412584230358       -0.50350394439763
C            2.79455477991444        0.04637639194770        1.55153436411663
C            2.99420930959569       -1.19317736852918       -0.61948395872617
C            2.28966270154941       -2.34955829096017       -0.30898994998018
C            2.62932980473657       -3.56620174038203       -0.86073272863942
C            3.69848991065416       -3.67353986993666       -1.74458275997375
C            4.07593191715448       -4.98064410772550       -2.33554102543723
C            3.11715317002339       -5.82109669920212       -2.89236516344965
C            3.47652887159562       -7.02986491186616       -3.44899339603960
C            4.79943481600319       -7.45376759638762       -3.46487808678834
C            5.16397330283504       -8.79900984525791       -4.11419322525054
C            4.31367971912231       -9.92362661695579       -3.49189390641621
C            4.88796264304794       -8.71824866705196       -5.62670018959573
C            6.65034153450155       -9.15062757226367       -3.90474030126996
C            5.75517640083982       -6.61120622449330       -2.90953684602196
C            5.40281755865080       -5.39898406073905       -2.35581196424921
C            4.40902564948611       -2.51799382355382       -2.05445255767467
C            4.06182575098453       -1.30346492257843       -1.50254967321524
H            0.81286218378340        1.39917292122785        0.14322739947479
H            0.45756772495149       -0.32391792636405        0.13174514932200
H            0.94548055057763        0.48214847244198       -1.35753463464434
H            3.13213756487339        2.25430310618005       -0.04751556997759
H            3.33348062315917        1.41916444448565       -1.58287066613767
H            4.49795551064233        1.17117036874871       -0.27341349884284
H            2.52979462301288        0.98385778508763        2.04036052496814
H            3.83481497696221       -0.17594437602571        1.78899479184532
H            2.17749257009979       -0.74109790490862        1.98279739263095
H            1.46553848763713       -2.29509992699018        0.38122886290697
H            2.07445753048260       -4.45179188038222       -0.60163296499084
H            2.08670255018643       -5.50897386979695       -2.89478592592247
H            2.71740505136976       -7.65397473079511       -3.88789025805475
H            3.25093890616697       -9.76730805553495       -3.67176245372460
H            4.46856730267996       -9.97250218249897       -2.41419285889512
H            4.58028624943258      -10.89216575148746       -3.91480086788207
H            3.83626262244122       -8.51381928107125       -5.82473302333812
H            5.14625357709207       -9.65431490066129       -6.12163536172726
H            5.47515915566036       -7.92158416260364       -6.08333929758211
H            6.89516290679831       -9.19837227703030       -2.84372043847277
H            7.30021427564123       -8.41499818112208       -4.37809137243721
H            6.88341075399572      -10.12162573755437       -4.34176125224951
H            6.79070371829755       -6.90196011292668       -2.90890466590034
H            6.15655917622420       -4.76264473831455       -1.92419917412406
H            5.23529963096309       -2.58268549445724       -2.74181620555308
H            4.63349703325665       -0.43090217565957       -1.76479968871532
