55
 energy: -12.644047663850 gnorm: 0.000740772471 xtb: 6.5.0 (97a52f5)
N            1.33687712050158       -0.37638685389839        0.40420334279463
C            2.49573337896648       -0.32349726123557        0.35465520424919
C            3.89624697076746       -0.25453928771525        0.29197443577752
C            4.66584115342830       -1.41635094415651        0.37555826150135
C            6.04193294317537       -1.37050712044236        0.31663829147410
C            6.66609005966799       -0.13990526047480        0.17088637707338
C            5.90475223430957        1.02731705957694        0.08645598603724
C            4.53042106058589        0.97632162718296        0.14584749468208
C            6.83421833902506        2.23615056488300       -0.06560830765600
C            8.22201003019482        1.58724795048711       -0.05039542111486
C            9.46577253187933        2.16836249932692       -0.15134086216987
C           10.60221318069369        1.36460348306126       -0.11905747055432
C           11.87753007297908        1.94205689020240       -0.22000424652787
N           12.93122764438903        2.42257047371505       -0.30376271124082
C           10.46003735678366       -0.01782385846250        0.01403866432461
C            9.21707614176150       -0.60435757165116        0.11553420141409
C            8.08968834467905        0.20401234361561        0.08449204883264
C            6.67882989662167        3.17213479357217        1.13019517424044
C            6.83358880255906        2.66724658886965        2.40960937770268
C            6.69555969179906        3.47339817793373        3.52009560495887
C            6.39699075119411        4.80987263440893        3.36186127262667
C            6.24217344690736        5.32943716723417        2.09830071567809
C            6.38141047249962        4.52919770271403        0.96651690674557
N            6.21095664257633        5.09238627760485       -0.32907294545640
C            5.93936284566442        6.50662955456736       -0.45912993447344
C            6.96993664871256        7.43766693996343       -0.35679001946479
C            6.70867453367887        8.78382687810615       -0.47287510338903
C            5.41742441316912        9.22199489921633       -0.69320035693895
C            4.38589413410924        8.30929308380654       -0.79773036409824
C            4.64224175988658        6.96210977909505       -0.68214464677695
C            6.29958715744259        4.28420741583854       -1.49701069305741
C            6.10547688419713        4.85141210355783       -2.75452802769901
C            6.18819992861023        4.09354859426594       -3.89886516704795
C            6.47073838037046        2.74742526823223       -3.80887354290145
C            6.67082430950015        2.17183041726907       -2.57140073542223
C            6.59061188353230        2.91882158964389       -1.40902646626698
H            4.16322022359912       -2.36158775993987        0.48876274656929
H            6.63185854933784       -2.26746569904967        0.38195504926232
H            3.95368541935501        1.88086446976263        0.08107673855585
H            9.55636555945454        3.23423086876309       -0.25436178299437
H           11.34657962285575       -0.62817047046013        0.03611708527956
H            9.11120783158984       -1.66983185431263        0.21751564997323
H            7.06444647625384        1.62288566953395        2.52958241841350
H            6.81877632313979        3.06006796778850        4.50762637715899
H            6.28480447018923        5.44465381108386        4.22544334109994
H            6.00563037836442        6.37093551542011        1.97304630373686
H            7.97215303198258        7.08508954798976       -0.18710824073772
H            7.51255007712211        9.49692546977673       -0.39181321322616
H            5.21461650383774       10.27651770359280       -0.78294054746687
H            3.37902605289185        8.65262092640929       -0.97008451490709
H            3.84663444881337        6.24210762614047       -0.76126020699484
H            5.88920995757065        5.90242236451448       -2.82269879037131
H            6.03284915504768        4.54949548111728       -4.86289890520660
H            6.53807234746007        2.14762371711620       -4.70164696500959
H            6.89757242429941        1.12223004483773       -2.49788888099173
