53
 energy: -11.699498374137 gnorm: 0.000560666730 xtb: 6.5.0 (97a52f5)
N            0.87124409652570       -2.32954195922761        0.08858345888280
C            1.95621393174211       -1.92105843386965        0.02817193329657
C            3.26794807977263       -1.42743901439613       -0.04375354788521
C            3.52060780378945       -0.15309721173908       -0.53158491258047
C            4.80530225782297        0.33143973641361       -0.59630737360051
C            5.88771823252973       -0.42714351286280       -0.15220542391980
C            5.64145545420539       -1.74089219606787        0.27744008080824
C            4.34453079884252       -2.21484957600675        0.34152996605770
C            6.80758766223129       -2.63889855383090        0.56997133856066
C            7.98063091743160       -2.32094721103372       -0.37628227933640
C            8.31964692421847       -0.85693816951715       -0.35413268020130
N            9.60423101373923       -0.53761241147897       -0.40494688253226
C            9.93751436774878        0.75163172423200       -0.28810495131546
C           11.38849588914074        1.03597070376039       -0.20946095310322
C           12.26051943017847        0.49378640199989       -1.15227101964364
C           13.61274195732425        0.72641608369365       -1.07156535303098
C           14.12940606753250        1.49225080371810       -0.04361474710347
N           15.57039339292717        1.73740396945144        0.04022364138115
O           16.30611667026907        1.25608036180492       -0.83301787471964
O           16.00327019546927        2.41713574598888        0.98140139157625
C           13.27879695549028        2.01867410986108        0.90985521115621
C           11.92602452518756        1.79038807905040        0.83478119064859
C            8.97542103372733        1.77497899589949       -0.14530721397497
C            7.63266717826803        1.41694133822210       -0.01758212545003
C            7.28465723204942        0.07208797028286       -0.18724974040961
C            6.63975145779256        2.46962871823951        0.41044790653213
C            7.29375509518693        3.56296119746900        1.28041841922461
C            8.52710088975178        4.09771363588477        0.61672198808180
C            8.83890158252222        5.44366796864422        0.65069759241896
C            9.92961522470948        5.94927822154097       -0.04462677477099
C           10.23122291797993        7.31923152473124       -0.00169683948634
N           10.47768715426989        8.45308674403540        0.03306408617996
C           10.69986429668572        5.07531319661525       -0.79963949336425
C           10.40118974842986        3.73484820418291       -0.83877590171356
C            9.33352496454977        3.21210809848426       -0.11077151360500
H            2.69364924541632        0.44993752145467       -0.86666411539273
H            4.97995693448749        1.29425016482398       -1.04064863851505
H            4.16070910059645       -3.21815361804015        0.68270403541254
H            6.50460551188029       -3.68865030600868        0.47623617738436
H            7.11564862285335       -2.49882793514832        1.61225178476908
H            7.72719197043461       -2.61101841878124       -1.40189342052763
H            8.87263773546074       -2.89774611141959       -0.10547282236891
H           11.85695096952186       -0.11183977287502       -1.94504038242104
H           14.28840822185867        0.31426830870552       -1.80160556245836
H           13.69547279644824        2.60638435018926        1.71006204484753
H           11.26611235340057        2.18850809046701        1.58606285399839
H            5.81729257363747        1.99902043070189        0.96179923289705
H            6.20447482903297        2.93438238625097       -0.48091781333687
H            6.58931404873255        4.38108973428265        1.47345186228850
H            7.56328649814924        3.15343533657485        2.26047414078016
H            8.22102029009656        6.11938904811129        1.21492907424717
H           11.53492072261544        5.46405215216750       -1.35747097290587
H           10.99409217531646        3.07560335436111       -1.44734808176353
