48
 energy: -9.865972193101 gnorm: 0.000648053991 xtb: 6.5.0 (97a52f5)
N           -4.14554070984542        0.78132101378976        0.17231223774041
C           -3.03488688474526        0.45278129539899        0.08774870622428
C           -1.69315718610174        0.05750996993521       -0.01301267365993
C           -1.36481122313212       -1.25168645910535       -0.41785245823829
C           -0.06775966129857       -1.64927526841692       -0.52216799145473
C            0.98651663121227       -0.75476562657115       -0.22708589988045
C            2.33637206540492       -1.13208954919793       -0.32885969965845
C            3.35395984438731       -0.24552427622041       -0.04333111346729
C            4.76113690446208       -0.64784494920764       -0.11370574372990
N            5.66989148062134       -0.23793980142299        0.76205804730508
N            6.78706864244093       -0.89691611841226        0.47894978005151
C            8.04759429128648       -0.66338523956725        1.20369632058126
C            8.66771998839104       -1.96298523224759        1.74736052013512
C           10.17157228216196       -1.78846221094985        1.48362615863190
O           10.87186909406061       -1.29805134045290        2.61483147576288
C           10.22644682542915       -0.78019311209429        0.30397829890634
C           10.38842142205254       -1.47460681573719       -1.04873070373172
O           11.58773770456504       -2.20316881817523       -1.15392051770343
O            9.01527125086122        0.00247686457673        0.36570987743906
C            6.66224105081533       -1.74761627675649       -0.61936065223479
N            7.53464466586199       -2.57143829199084       -1.20073597377543
C            7.01854108208326       -3.19351588662196       -2.23061648617043
N            5.81075371154475       -3.10363798926776       -2.78468054994621
C            4.95053758525637       -2.26810166582954       -2.20838566186224
N            3.72760269332888       -2.02279382770178       -2.79940397856601
C            5.35595885537755       -1.58172118986445       -1.03813957803802
C            3.01957823809721        1.05634639829786        0.38975864635974
C            1.72385623156414        1.45273447573798        0.49586921271777
C            0.66936049798726        0.56261031130628        0.18634235388643
C           -0.68273368788994        0.94071871763462        0.28289190744389
H           -2.16370529723113       -1.93692257852469       -0.64475360593693
H            0.16990964988609       -2.65211496883259       -0.83186042019104
H            2.58014595796406       -2.13853806514217       -0.61543664274107
H            7.82947145764747        0.03660416313549        2.02146576043058
H            8.25989687456959       -2.82333989240388        1.20948380009395
H            8.46865753931641       -2.10829600649758        2.81311962249852
H           10.65076164961795       -2.73888220665398        1.19905070218843
H           10.51081871224754       -0.43167883527569        2.88095000159292
H           11.05775671244513       -0.08015765954258        0.46731602715699
H           10.31770362555229       -0.75485208665917       -1.87321552693321
H            9.58360278015291       -2.20150419203741       -1.18793547880706
H           12.36339225059886       -1.61852166472565       -1.05605015685345
H            7.69099893796293       -3.88053501959969       -2.72755781924756
H            3.54974211709835       -2.40073332246962       -3.70912396790272
H            3.22874406393513       -1.16327709024853       -2.65022792031102
H            3.81869919535576        1.73490727666487        0.63336195803351
H            1.48590756062450        2.45059539095883        0.82093012106662
H           -0.93116747398702        1.93931765698791        0.59435968479409
