51
 energy: -10.696130101315 gnorm: 0.000822323482 xtb: 6.5.0 (97a52f5)
N            1.47720394697611        0.34083659319628        0.60430990688510
C            2.63133512939668        0.29648483220027        0.48303637470102
C            4.02509164047939        0.23905838360248        0.33638875718876
C            4.76467498929515        1.40975303054942        0.07408338743932
C            6.11706631238942        1.36751057803294       -0.07248222368259
C            6.81585329580533        0.14346706465284        0.03444639873021
C            8.21382378695187        0.06324067152856       -0.11792440984121
C            8.87789036396864       -1.13627404935089       -0.01365593050134
C           10.27291717363823       -1.20198182542152       -0.17786964259189
C           11.48392115064176       -1.25033860309018       -0.33567263768280
C           12.87162141051612       -1.26656948689223       -0.53154144576004
C           13.67073292845491       -2.37985226251376       -0.66196718407386
N           14.97566124122096       -1.99196197302293       -0.85009245747854
C           16.11368782552621       -2.93171356221989       -0.85912487950798
C           17.37444952038264       -2.37062811028177       -1.55586312792510
C           18.46169330670309       -2.39571499188408       -0.46327608395447
O           19.43400090865057       -3.40323751724053       -0.69155889147613
C           17.68256056455984       -2.65805325127965        0.85511132982823
C           17.41647477372629       -1.37856215046331        1.64958068270221
O           18.59958229946735       -0.71181940954794        2.03259569597005
O           16.46434551037050       -3.32428367272845        0.48059138279585
C           15.04305554912518       -0.60117125637369       -0.80543033261096
N           16.09782576738055        0.21752359764220       -0.89764273596491
C           15.77187373172405        1.47950339281310       -0.78642152327997
N           14.58926490450455        2.06776205578091       -0.60701212954078
C           13.53840740769479        1.26107481103751       -0.52047113940344
N           12.27355536672282        1.76513453014109       -0.32940163393779
C           13.74318294906625       -0.13594081137924       -0.61849029697802
C            8.13579035177119       -2.30597448984579        0.25291263863137
C            6.78389751053775       -2.26332868356721        0.40489030919223
C            6.08469679547132       -1.03973085631949        0.29928469524165
C            4.68610278908622       -0.96041317604961        0.44534128668185
H            4.23767454681203        2.34486959445649       -0.00968585492797
H            6.67044934726564        2.26842930991838       -0.27318875890942
H            8.77037852039400        0.95909778907897       -0.32524289215979
H           13.33849382051211       -3.40331572087096       -0.61385399610320
H           15.77404799622366       -3.84891956477773       -1.36173794119601
H           17.18827717034024       -1.35824973620835       -1.92255927677034
H           17.68130613600277       -2.97774132683333       -2.41221283630703
H           19.00287757040256       -1.43809121119205       -0.40237744462303
H           19.00325426412865       -4.27884152316056       -0.70291237422712
H           18.25179987657619       -3.36801101078575        1.47170590498460
H           16.80854101358723       -1.58816184023858        2.53798385238922
H           16.84181282744268       -0.67957155822617        1.03430855796548
H           19.15144926290001       -1.28116441471086        2.60268133603230
H           16.60608091916897        2.16608990062637       -0.84844038100380
H           12.11341694439698        2.73643359767524       -0.14373807269710
H           11.47946649021347        1.17639853245686       -0.15207331379475
H            8.66142640352225       -3.24218857808593        0.33260983876461
H            6.23107970220384       -3.16450577749076        0.60630556392584
H            4.12395598577273       -1.85510586325358        0.64425394891156
