17
 energy: -3.902990260543 gnorm: 0.000899438506 xtb: 6.5.0 (97a52f5)
N            1.27729276473465        0.00716845242730        0.16991192453537
C            2.43769662434051        0.01247757879068        0.13588680738847
C            3.84143078976988        0.02048210670304        0.09050941968564
C            4.55604126064516       -1.20036391475848        0.05499727308233
C            5.92095394478587       -1.23395675952099        0.00856977963859
C            6.62484502106149       -0.01689715177847       -0.00346502818913
C            8.00620375148477        0.30031676730984       -0.05802534976965
C            8.11396258075904        1.66434145306052       -0.05282180206065
N            6.85998785249178        2.22436024263820        0.00472189663409
C            5.92230406752040        1.20432624052422        0.03501434987284
C            4.52424476898660        1.21728958306905        0.08012573543759
H            3.99509164420030       -2.11903709812991        0.06452138588982
H            6.45997380984790       -2.16415080567934       -0.02041328469134
H            8.81535431823944       -0.40892508889923       -0.10311009666419
H            9.03300422219886        2.22853529186313       -0.10058141081067
H            6.64043290122413        3.22000687352691        0.02220275546832
H            3.99291967770920        2.15033622885353        0.10556564455256
