72
 energy: -16.614338799044 gnorm: 0.000745620579 xtb: 6.5.0 (97a52f5)
N            3.17442318724301        2.02685824005680       -4.06749842837973
C            3.14886095041064        1.43667415672325       -3.06830958935268
C            3.11918367696275        0.72063560093704       -1.85874144997257
C            3.62923995006183        1.27554747111924       -0.69188445644409
C            3.59347847692157        0.56978765681030        0.49136394510203
C            3.04903535118741       -0.69515127410173        0.52782120195700
C            2.52766254923650       -1.27817304625443       -0.62397863218670
C            1.94660628904811       -2.63903263321300       -0.59712510410090
C            1.13388931478966       -3.06480537231712        0.45149796667868
C            0.59720152335721       -4.33532419128252        0.45485969716482
C            0.85714248937746       -5.20190762756121       -0.58379699763053
C            1.66268484726584       -4.80582097601204       -1.64558071684265
C            1.95027763484823       -5.70758342119378       -2.77133877924931
N            2.74292667819137       -5.23829476011559       -3.71944848923963
C            2.97151758249874       -6.07629955385608       -4.71601453072999
C            3.85802393692066       -5.60032504001816       -5.78868193367352
C            4.13382801067098       -6.38241996105857       -6.90470134986567
C            4.97152854217175       -5.91528378219416       -7.89318769889565
C            5.54671427631122       -4.66642015744744       -7.78446519195318
C            5.28926056224169       -3.85860078406508       -6.67857810200118
C            5.90170277766142       -2.51864298271605       -6.53881165441606
C            6.37028357082953       -2.07615683020248       -5.30416695362674
C            6.93076772348344       -0.82508618790905       -5.17094064938152
C            7.03435065294091        0.00753574230936       -6.26392715337274
C            6.57717139469004       -0.40466335999080       -7.50938589042616
C            6.67901613769649        0.44100271997306       -8.62763162914346
N            6.76539775863806        1.13599561431230       -9.55314378365986
C            6.01366214784820       -1.66606276874749       -7.63182251420289
C            4.44068980222038       -4.34460021020774       -5.69381768252988
N            2.47408600787793       -7.29680793211631       -4.81766953281722
C            1.69846425796553       -7.66003527935058       -3.80934141662713
C            1.11578294152892       -9.01049716650571       -3.85525940737501
C            1.31318894190586       -9.83952165123355       -4.95445705310099
C            0.76338963472024      -11.10169482927473       -4.98599711339598
C            0.01234129354315      -11.55772252029450       -3.92372074241194
C           -0.20124998248034      -10.75284150928057       -2.80662205931556
C           -1.00136908391491      -11.23262464230167       -1.65754032778148
C           -1.94065133339858      -10.40516014022484       -1.04815309567903
C           -2.67875531340377      -10.85121398779886        0.02589892068381
C           -2.49377305736830      -12.12736297349641        0.51206055387457
C           -1.56369935118141      -12.97685771130839       -0.07388032560407
C           -1.36792857102241      -14.27808106070623        0.42083231854127
N           -1.20476873183839      -15.35243120281386        0.82842813255371
C           -0.82649292474684      -12.51765596841736       -1.15512611300594
C            0.35763979858310       -9.48177123754815       -2.79260751593181
N            1.40140314257777       -6.91013919136167       -2.76019604901181
C            2.19816575739472       -3.52567840728865       -1.63479492770924
C            2.57361603800904       -0.55328041782397       -1.81044991258620
H            4.05315186409829        2.26483270854686       -0.72442267913329
H            3.99414797251344        1.00872028099681        1.39034538485040
H            3.03518650436600       -1.25040825808019        1.44963658973433
H            0.91587575888569       -2.38464401821593        1.25646643943471
H           -0.03074578341522       -4.65045233745315        1.27201217652244
H            0.44068190203628       -6.19392190478178       -0.58892774859513
H            3.68265336382679       -7.35613943781961       -6.98124935493986
H            5.18041846947506       -6.52950043269931       -8.75373082674320
H            6.21398247494958       -4.31121226648065       -8.55044042140802
H            6.30150633519876       -2.72880634884676       -4.45120857586339
H            7.28732923227682       -0.49520832468090       -4.20886665323441
H            7.46871032230208        0.98769981126826       -6.16371620745351
H            5.64533846518015       -1.98194499717783       -8.59120078218274
H            4.21968340458210       -3.73664293147126       -4.83612297926217
H            1.90299699168915       -9.47742261162704       -5.77817963361887
H            0.91970045370502      -11.73410496385208       -5.84451605036268
H           -0.42738917872632      -12.53956961900085       -3.95470807160689
H           -2.09371258352116       -9.41206382912249       -1.43369573153117
H           -3.40401614731713      -10.20092530068762        0.48690342417303
H           -3.06787827702669      -12.47978278470179        1.35205206106043
H           -0.09687821864206      -13.16722874861023       -1.60420715177601
H            0.21227117414383       -8.84751603854103       -1.93784210680293
H            2.82766743107836       -3.22259301240149       -2.45082361938949
H            2.16787080774175       -0.98098908726600       -2.70945526472921
