40
 energy: -8.934692922953 gnorm: 0.000680877765 xtb: 6.5.0 (97a52f5)
N           -1.71516833926191        0.47824246096855       -2.84103057460851
C           -0.97189502959395        0.30580877903939       -1.96637738939736
C           -0.07589794102478        0.09120212221784       -0.90505564298670
C            0.11340145883286        1.05404049530735        0.07994568240766
C            0.99382091911877        0.83090556890595        1.11790910549620
C            1.69716152815866       -0.35111276390045        1.18926465350008
C            1.52876001657545       -1.33351239662994        0.21651798621520
C            2.25700858953238       -2.59733370200494        0.26449607901045
N            2.14842800521273       -3.54583206370293       -0.65959835705329
C            2.95917039366320       -4.55311640146619       -0.27767528567296
C            3.07279448829627       -5.81688239760510       -1.02041316927740
C            3.30644114677815       -7.03029168519826       -0.37567177664310
C            3.38944618381387       -8.20290201896820       -1.09241721294169
C            3.23252066422704       -8.18914216074029       -2.46395976379433
C            2.98496957733656       -6.99838008071394       -3.11697505729018
C            2.90137456307313       -5.82433472826647       -2.40216364583767
C            3.61245457927804       -4.20369278092470        0.92753652586210
C            4.64278716883893       -4.93454925316573        1.67324634620762
C            4.64499117336855       -4.91564834836993        3.06648171357745
C            5.61728871388089       -5.58272375787315        3.77759661041328
C            6.60938329669227       -6.27528873661576        3.11262230557408
C            6.62924079567757       -6.29563132562502        1.73235620312075
C            5.65908040250691       -5.62941816014360        1.01801201898384
N            3.14160206553283       -2.96853612475238        1.25915110067947
C            0.63775419537343       -1.09372333463043       -0.82327206875833
H           -0.43857044598423        1.97652305099790        0.02175187554383
H            1.13228019737550        1.58467204050110        1.87565654679529
H            2.38245630353361       -0.52087500093695        1.99987402059527
H            3.41153573911279       -7.04347181356870        0.69499898440584
H            3.57489341180263       -9.13333640311648       -0.58135393757102
H            3.29790986865294       -9.10759640590888       -3.02389855917345
H            2.85535319793396       -6.98752722691363       -4.18680526048059
H            2.70224935228511       -4.89356831278269       -2.90400800972936
H            3.86847881745626       -4.37764417229094        3.58170323263356
H            5.60386534957743       -5.56388099663246        4.85500399607385
H            7.36958662674713       -6.79696315199748        3.67057247191328
H            7.40672594224046       -6.83177984473168        1.21335944857735
H            5.68010513503411       -5.63300434218800       -0.05789424346332
H            3.44307665032711       -2.41058434297589        2.05726843721610
H            0.49955523801082       -1.84642028259703       -1.57763539012828
