25
 energy: -5.403839752301 gnorm: 0.000608823278 xtb: 6.5.0 (97a52f5)
N           -2.90595602126591        0.44835004612395       -1.31819341893465
C           -1.82894984048679        0.35581802439840       -0.89229467398287
C           -0.52895609822399        0.24513696517645       -0.37591849109387
C            0.11198074309711        1.35128423697326        0.18834255066321
C            1.39459095525069        1.24455355037846        0.69828118269183
C            2.05878048605886        0.04608156879611        0.65974331389905
C            1.44593962399785       -1.10291328432873        0.09880226721481
C            2.10205656914239       -2.32592873104565        0.06155867743348
P            3.71484157303431       -2.58124631190611        0.68250196773219
C            4.00159216667400       -4.28265736818206        0.41298888489660
C            5.12348695061367       -5.00562380803830        0.74299248526337
C            5.16238376766699       -6.35928026130829        0.45205912653018
C            4.08424603911927       -6.97116513445922       -0.16440589295070
C            2.95935950583454       -6.24179487515629       -0.49591912360092
C            2.90871041266293       -4.88127346073265       -0.20585145976121
S            1.49476844695479       -3.82470480407474       -0.58145963464627
C            0.13568674894603       -0.96365605841190       -0.41718289102424
H           -0.40896899660711        2.29265603474495        0.22214792559420
H            1.87164648033785        2.10914439474809        1.12969506765071
H            3.05451797017592       -0.03692483783900        1.05744750704891
H            5.95373952445581       -4.51550019700832        1.22406179299804
H            6.03529092962502       -6.93725029412468        0.70704224627114
H            4.12285028776023       -8.02459252912385       -0.38789666008587
H            2.11711510686191       -6.71000241414863       -0.97516520499256
H           -0.35097333169210       -1.81938045144498       -0.84748754481940
