89
 energy: -20.614691036789 gnorm: 0.000469946175 xtb: 6.5.0 (97a52f5)
N           -3.75035390309514        1.24007732535041       -0.65614925301248
C           -2.69129700294000        1.33373518951150       -0.18902738743867
C           -1.41368508705087        1.46099488185252        0.37669934164749
C           -1.10956886777489        2.60157422946853        1.10501045507121
C            0.13531841163108        2.77022617804517        1.66995976809366
C            1.09829467489920        1.79710738951381        1.51946586410027
C            0.83516976025727        0.64143478189117        0.79959471686662
C            1.82848944922973       -0.34436891088446        0.69494682781306
N            2.64775503114192       -1.16415553999515        0.61776033406879
C           -0.43279441008577        0.46300698351220        0.21010860789411
C           -0.72439944629955       -0.76740510588736       -0.56590326240821
C           -1.65735086688162       -1.69782801315283       -0.11145028896629
C           -1.87220517331301       -2.86817950943951       -0.79394120265479
C           -1.17578316860039       -3.16513276557456       -1.96698970577976
N           -1.26784891942069       -4.46091639705218       -2.57510983771149
C           -1.89579699860298       -5.54121957800678       -1.86746439015026
C           -3.24194330840158       -5.49837315506329       -1.51163522859924
C           -3.79813161418618       -6.49982536286197       -0.75059444998142
C           -3.02201441114155       -7.56337097339955       -0.33823615463835
C           -1.69748786670006       -7.63533584739054       -0.71649955926990
C           -1.12421079502524       -6.65161375848899       -1.50162412933429
C            0.32638450587662       -6.78088117161288       -1.98823599843492
C            0.53980574137922       -5.95549328222690       -3.26930710686477
C            1.55259816410824       -6.26654282964246       -4.15856804842207
C            1.70675608404147       -5.56306984380541       -5.33589336385497
C            0.84116444143724       -4.53373365676563       -5.64308861235730
C           -0.15604346224029       -4.19050762879714       -4.76101546081225
C           -0.30049030332165       -4.87023935050693       -3.55416375328524
C            1.26100994054283       -6.25873032736304       -0.89430532156686
C            1.38050533058391       -4.89801478708636       -0.68011483036122
C            2.20437458393428       -4.38726649785456        0.29807890012767
C            2.91621884672833       -5.24840515783631        1.10370308584789
C            2.79693297648704       -6.60665210948162        0.92521546945403
C            1.97532042257475       -7.13231514211629       -0.06924265672695
N            1.87159617461866       -8.54262378198014       -0.23660376243811
C            2.26972821206919       -9.41639725514541        0.84272788504369
C            3.46857098246409      -10.12701659816333        0.79417739720562
C            3.82826328333997      -10.95891599072778        1.82413986166634
C            3.00653807824831      -11.11131424663022        2.94283592905387
C            3.38488421315903      -12.02360732990081        4.04953395411765
C            2.56436215336004      -13.12095585712013        4.38256392026317
C            1.38540902045781      -13.40006160303299        3.67434419662245
N            0.40932439300744      -13.64239427058104        3.09366847653403
C            2.93436366233478      -13.96154795842567        5.42175527658344
C            4.09180421037829      -13.73934088059842        6.13394258382511
C            4.90000031792133      -12.66999793072340        5.81798690356986
C            4.56693373188434      -11.80510752386102        4.78607774260312
C            5.40819016931667      -10.71495105802428        4.51648351094629
N            6.11007979982363       -9.81464158496055        4.30342636695439
C            1.81433483289850      -10.38716454826645        2.99296558287863
C            1.45380873988542       -9.55486964177913        1.96467641763177
C            1.29874922803858       -9.08039144778085       -1.42489451668863
C            1.41460801162319      -10.43895787048606       -1.70778817083278
C            0.84490292514521      -10.98119627111794       -2.83514127650064
C            0.13539232390474      -10.17501375091631       -3.69887666510434
C            0.00029208919453       -8.82999067087787       -3.42495995125786
C            0.58001214550614       -8.26184149682945       -2.30316022631606
C           -0.25515961273443       -2.22078457978332       -2.42496861976512
C           -0.03255677597384       -1.05200588886363       -1.74247852267037
H           -1.86480550086648        3.35996913435076        1.22292270415168
H            0.35489131348684        3.66249362610175        2.23308086688041
H            2.06975946000818        1.92200278274867        1.96675105083451
H           -2.19009382856518       -1.49469345355045        0.80154208973811
H           -2.55589411681090       -3.58987944310291       -0.38870329424306
H           -3.84406126503165       -4.67292438683242       -1.84954123601466
H           -4.83830107798088       -6.45198919885073       -0.47298923230334
H           -3.45280892755791       -8.34364147909434        0.26733961384721
H           -1.09211792806957       -8.46780288937553       -0.40444005801099
H            2.22035875028700       -7.07781794529283       -3.92578236492118
H            2.49592390321176       -5.82579447628871       -6.02093079605521
H            0.94949886353453       -3.99613283038744       -6.57076307983656
H           -0.84192963404103       -3.39522769163223       -4.99598216523670
H            0.79173895670212       -4.23299330744756       -1.28156444051440
H            2.29386165170884       -3.32021566548586        0.42723217769410
H            3.56321490049846       -4.85837972350121        1.87225659442224
H            3.35064131597409       -7.28301050042198        1.55195329137571
H            4.10880753325349      -10.00606213435240       -0.06209817952667
H            4.75222976765265      -11.50902191854895        1.77976349427223
H            2.30145730311032      -14.79833128032291        5.66415358155897
H            4.36461938909873      -14.40177827831086        6.93903119829326
H            5.80310267567295      -12.49067667706226        6.37630753994325
H            1.17788749210000      -10.49284007941340        3.85444156288723
H            0.53302921420663       -8.99980704829150        2.00527737694585
H            1.95528285774827      -11.06922499099327       -1.02528457539031
H            0.94708143340734      -12.03437014561958       -3.03958852275600
H           -0.31976995692062      -10.59545083104480       -4.58046126332610
H           -0.57639313315946       -8.20427117474135       -4.08415369698219
H            0.32705646042109       -2.43297419528398       -3.30204196714230
H            0.69791705719779       -0.34584401827881       -2.09804593284033
