47
 energy: -9.425948716129 gnorm: 0.000708179644 xtb: 6.5.0 (97a52f5)
C            1.17709202104700        0.34675352979347       -0.71234219651830
C            2.62202684991090        0.13159034447042       -0.22535749692324
C            2.77840820264195       -1.33943480473718        0.20698373990032
C            3.60470094476324        0.40214876360562       -1.38057414526956
C            2.90958246436959        1.10045914720925        0.93212990053453
C            3.18265640349868        0.66401387532111        2.22415579015333
C            3.39330236005937        1.55792099195796        3.25035197881297
C            3.32939768827442        2.93133860372108        3.02397926504266
C            3.51321147249572        3.89274982793349        4.11850429986229
C            4.56065628805913        3.89929467107269        5.04359668929935
N            4.49965976751540        4.95294634466757        5.84661452233508
C            3.40576725166860        5.63749829755877        5.46760544112603
C            2.93129103860879        6.85475586857406        5.98973902722729
C            1.79741251911083        7.39654697641723        5.46562507665485
C            1.09516847222526        6.74061634620892        4.44410783427795
C            1.52352529431939        5.54304905453598        3.92904704559715
C            0.71110699704875        4.81984681124609        2.93367963957588
C            0.30624817868852        3.50555498368140        3.16902059352231
C           -0.43575421333585        2.81842366355946        2.23432979674482
C           -0.79554436064818        3.43136807289731        1.05025819115835
C           -0.41643693625527        4.73701228299337        0.80607338180497
C            0.32568754494394        5.42805596567587        1.73828871600723
N            2.72963843007202        5.00238871155462        4.41505852325589
C            3.08229017180733        3.36937088645233        1.72516964167720
C            2.87052366341890        2.47058105486973        0.70525888895850
H            0.93290052367501       -0.33598480871531       -1.52559749416906
H            1.02988666269534        1.36345955099807       -1.07409491714174
H            0.46857069607046        0.17460938386866        0.09729725912259
H            2.58530076325660       -2.00984741830871       -0.63009323999054
H            2.07520227132279       -1.59366935808351        0.99937725097629
H            3.78891995905509       -1.53824036101430        0.56266399767332
H            3.43969790466389       -0.29377870887669       -2.20259542291556
H            4.63482464825194        0.28866308410180       -1.04432240341625
H            3.48979581822503        1.41122829314484       -1.77337406229960
H            3.22439128155056       -0.38953473862530        2.43539286656214
H            3.59061514877837        1.20377401037536        4.24756002256558
H            5.35078620046734        3.16385956049703        5.08205669552098
H            3.47235345093581        7.33866320761090        6.78287300108806
H            1.42350778920750        8.33112186002918        5.85088483806537
H            0.17678720781366        7.16345107980995        4.07508037870343
H            0.59531000364783        3.03026835083691        4.09045052691826
H           -0.72961534427139        1.79897843897046        2.42383326408675
H           -1.37123373294857        2.89082920070857        0.31675372349108
H           -0.69857138428594        5.21464744029442       -0.11803317966299
H            0.63071779455611        6.44241862164143        1.54659138991929
H            3.04442600613614        4.42767626358332        1.53320393583074
H            2.65563781688342        2.83589677590838       -0.28378257574450
