66
 energy: -15.820777357265 gnorm: 0.000830285116 xtb: 6.5.0 (97a52f5)
N           -3.37001457801118       -1.24008858793867        0.74635437930822
C           -2.38507770948085       -0.65813983717237        0.54908559306360
C           -1.20271445600038        0.05918469842909        0.31769776177563
C           -1.21073605747223        1.44476044869706        0.36047926059962
C           -0.05502444489816        2.16403461784113        0.14712397179341
C            1.12899296426589        1.50892547385169       -0.11263491269155
C            1.17729103859690        0.12452779911439       -0.16324026144895
C            2.38721966012318       -0.52723639574326       -0.44171435728563
N            3.39389227330546       -1.05577461044680       -0.67583854293711
C            0.00188272826311       -0.61225916023208        0.05376094515728
N            0.03249220251664       -2.05018799459491        0.00292348845814
C           -0.42828682506670       -2.84973333230055       -1.06216681640336
C           -1.01092412806840       -2.49761721193775       -2.27724333396533
C           -1.36529137816682       -3.49604367852130       -3.15028034703343
C           -1.14566916449831       -4.83938298349076       -2.83529141890076
C           -0.56663247238541       -5.20175642792608       -1.64304326261886
C           -0.20181512971178       -4.19852358479721       -0.74550426538263
C            0.42149908813415       -4.23330536011963        0.55698908124450
C            0.86549196504616       -5.28230322757497        1.35571209188442
C            1.43261833736339       -5.00575703685804        2.59252602546343
C            1.91253758338854       -6.10717635535548        3.45509368265997
C            1.58991810597521       -6.13247752163653        4.82963730082391
C            2.00481680007665       -7.14828104258432        5.64994896492946
C            2.76739366013962       -8.18022499297803        5.10593039587330
C            3.10880001393907       -8.16830520877162        3.74359942020530
C            2.67772320662128       -7.13413285119603        2.91879012100422
C            3.89640983584845       -9.35172397430346        3.48857424951844
C            4.49028806894586       -9.85756766010969        2.33244753781935
C            5.17893140206456      -11.04394575202134        2.41137868602046
C            5.28385944530767      -11.73657246394815        3.62014513817877
C            4.70293262713067      -11.25214338076959        4.76572614090363
C            4.00534609131267      -10.04819510116098        4.70263982955706
N            3.31214409501149       -9.33325779899473        5.69998011242627
C            3.14618964672227       -9.74458252553877        7.06885649476915
C            1.90707621521872      -10.23564051667845        7.51072216299216
C            0.82137627352084      -10.33549694274972        6.62893931246003
N           -0.08251394469552      -10.42667590198581        5.90631559725165
C            1.76873947556425      -10.63993201863099        8.82934262567272
C            2.82993474606643      -10.56547931803557        9.70492260037947
C            4.04720105889460      -10.08315532316214        9.27597048503006
C            4.22433722735553       -9.66843853667285        7.96511232126730
C            5.46579611190547       -9.16725002221313        7.54889428819460
N            6.49674493434405       -8.74983564617530        7.21658331450521
C            1.54752159751173       -3.66304658201260        3.01448518474726
C            1.11773457199245       -2.62202696692386        2.23438516600385
C            0.55081887360030       -2.90448685176362        0.99293387272588
H           -2.13671962374672        1.95410278598410        0.56588859643433
H           -0.07716932705199        3.24084159055811        0.18358458504164
H            2.03316844198361        2.06821892559266       -0.28271596434195
H           -1.17541572313643       -1.46051114666719       -2.50928674157037
H           -1.82016066316461       -3.24078957940680       -4.09326445330741
H           -1.43467712115973       -5.60220991021314       -3.53932922579627
H           -0.39261001741065       -6.23379546247571       -1.39529808968492
H            0.75617545077967       -6.29701233054473        1.02116540181681
H            0.98580796812478       -5.33719887256580        5.23032505343937
H            1.74885372843789       -7.16893899746838        6.69418081876404
H            2.94552829567612       -7.12793984260599        1.87879696747385
H            4.40318806992122       -9.32093567154878        1.40445153742605
H            5.64464137329930      -11.44804842585351        1.52767118059984
H            5.82916518704644      -12.66547013222567        3.65255413883892
H            4.77803169443606      -11.77678185630885        5.70143187101756
H            0.81719120457621      -11.01933867512876        9.16057676055177
H            2.70756426974129      -10.88532588616753       10.72671568799038
H            4.87737339930187      -10.02105614727843        9.95854793765523
H            2.00121762864662       -3.46142615168088        3.96924476864253
H            1.21328412607727       -1.60037656589550        2.55607908300888
