16
 energy: -3.742770340402 gnorm: 0.000820977731 xtb: 6.5.0 (97a52f5)
N            1.20613341540492       -0.00574215678455       -0.01968862968799
C            2.36512692337949       -0.05189736818221        0.02610745582813
C            3.76710308889434       -0.09219113393609        0.08198082576572
C            4.47555887992333        1.10238072598248        0.10441047273444
C            5.85332189802615        1.10708951312987        0.15801623463004
C            6.54748784053433       -0.07816735857470        0.18959883194591
C            5.87567001786106       -1.30122276611791        0.16946788653612
N            6.58378730676583       -2.48859625448853        0.20379481209591
C            4.46475446372566       -1.30735897034076        0.11475182151573
C            3.78683626115568       -2.53016447908992        0.09568614850321
N            3.25152153447690       -3.56066044816365        0.07874105261047
H            3.93084997572008        2.03170211412799        0.07795054345625
H            6.38693278263201        2.04393111560708        0.17716853160534
H            7.62260879274323       -0.07469813911687        0.23474360815384
H            7.58554286905267       -2.53046269658205        0.14580021077892
H            6.14171394970497       -3.38507169747024        0.10885019352761
