56
 energy: -12.302520579827 gnorm: 0.000735441190 xtb: 6.5.0 (97a52f5)
N           -2.94563088470078       -0.04205505387238        1.13643692775233
C           -1.82696800165823       -0.02464544630820        0.82581515485163
C           -0.47309193435292       -0.00572914647022        0.44851369269251
C            0.14906147884468        1.18200511031284        0.07601156922540
C            1.47906176657209        1.19297699986429       -0.29195865045077
C            2.20573906256615        0.02392539318972       -0.29589406933803
C            1.60769257210983       -1.17923402456632        0.06912278291278
N            2.37353025641598       -2.40507159117173        0.08029261561923
C            2.21311292155919       -3.36008029764554       -0.96280759160846
C            1.19592525957299       -3.21048038639093       -1.90262067234664
C            1.01918570094991       -4.12866976167012       -2.91038808948473
C            1.86289680397281       -5.21484693822648       -3.00159961964286
C            2.88350334561574       -5.36847611214886       -2.08605884994237
C            3.07714180161156       -4.45720495381393       -1.06103088062853
C            4.28173700057006       -4.59976456716793       -0.11904411469321
C            4.43603945513766       -6.09399120337973        0.21086794633966
C            3.59045563696114       -6.68347307542663        1.13884245719349
C            3.66511826321479       -8.03340607817463        1.41173117335367
C            4.57963377040921       -8.82183062471403        0.74662834464464
C            5.41101802325147       -8.25779305309221       -0.19736355261727
C            5.33322245026614       -6.90714368836504       -0.46680381997732
C            5.53648564002131       -4.02650611400989       -0.80121145145646
C            6.80233469692639       -4.27753752267708       -0.29177915542397
C            7.92630965557532       -3.72732163653270       -0.87250199660012
C            7.80294156565356       -2.89999221466905       -1.96822383746269
C            6.55203168939266       -2.62113799501086       -2.47574299958329
C            5.43188973406002       -3.17512516457307       -1.89237697189099
C            4.07214914103706       -3.79835435178866        1.17323142600561
C            4.81324745995469       -4.08766466767149        2.30742575833683
C            4.69469959238775       -3.33160769917734        3.45569799264334
C            3.82932031696207       -2.25897333960564        3.48417177047956
C            3.08453100273392       -1.95476693504612        2.36951181396108
C            3.18792349722861       -2.71387234493267        1.20618838638893
C            0.26780762315043       -1.17683320060600        0.44258110443097
H           -0.42270355196866        2.09418581630868        0.07914938975096
H            1.95026605434841        2.11933711842576       -0.57697390575693
H            3.24348011966661        0.02143923411007       -0.58001197280613
H            0.54035631243112       -2.36148071869308       -1.83025151207906
H            0.22408357198594       -3.99979864468880       -3.62649441848699
H            1.73124080520330       -5.93710475542661       -3.79048862522830
H            3.55220025512215       -6.20636019272662       -2.17235593637764
H            2.86327147882363       -6.07099520417099        1.64354966313395
H            3.00380721179124       -8.47249202821697        2.14072011597169
H            4.63913953056626       -9.87712001051779        0.95729469691404
H            6.11939507671283       -8.87235461507350       -0.72842757515712
H            5.96742471102310       -6.47815308029743       -1.22265574821752
H            6.90680755305225       -4.91786406646550        0.56637916950564
H            8.90141253955520       -3.94284496805877       -0.46706888815066
H            8.68004785092623       -2.46768612840999       -2.42146104263564
H            6.44830466031156       -1.96573721334801       -3.32513961212211
H            4.45744335078174       -2.93437333802354       -2.27888938648120
H            5.48979887221946       -4.92399378957263        2.29062306077131
H            5.27916338270743       -3.57752946632155        4.32700822937440
H            3.73458756127873       -1.66347459473034        4.37746141608815
H            2.40096377411293       -1.12478737677324        2.38928379017786
H           -0.19684748462076       -2.10132029178368        0.73327449813789
