50
 energy: -10.227802410580 gnorm: 0.000791474751 xtb: 6.5.0 (97a52f5)
N            0.82550992738856       -1.40010744266548        1.41681779932467
C            1.90698705255640       -1.31186884857722        1.00096576194415
C            3.21090507712923       -1.21899447889069        0.50195152303656
C            3.74125600450214        0.01522809955738        0.20313828458772
C            5.03260315523509        0.13656227551191       -0.29852142566973
C            5.80698854337766       -0.97183648253641       -0.49850664015828
C            5.32425098120781       -2.25922397460636       -0.20279883873379
C            6.11962712867851       -3.43457052339265       -0.40203656938464
N            7.41651959525837       -3.35545627806105       -0.86047115034411
C            5.55826136348771       -4.69761143601840       -0.13830242163787
C            6.35282695355599       -5.91830276762281       -0.33319911713312
N            7.57175307955299       -6.08400885128710        0.15961970242435
N            7.93508506436905       -7.32759740065543       -0.13981672658919
C            9.10721580942350       -7.98293044837721        0.46251848280007
C           10.23091999270421       -6.96908341011816        0.76445351839412
C           10.29248252255407       -6.91440051221120        2.30583996960726
O           11.48562007069808       -7.48264674367186        2.82016751056225
C            9.04436346333039       -7.71678514990586        2.77003474653049
C            7.86144062506638       -6.80635489896414        3.10551873261710
O            8.09912800949296       -5.95748276282587        4.20197773021400
O            8.72421774212448       -8.61236592804968        1.69361286123449
C            6.94422930927137       -8.03813585116657       -0.81902389118024
N            6.89727761627626       -9.30153995712794       -1.24708679673731
C            5.76698175878912       -9.57669843267355       -1.84881884441037
N            4.70847012988387       -8.80929250853336       -2.11071263397105
C            4.76814258766411       -7.54982188704741       -1.69037050122319
N            3.75146290773387       -6.66625831083556       -1.98983279723923
C            5.91715667282478       -7.12905637188205       -0.98180062562258
C            4.24947535564794       -4.78549939242420        0.35862825512484
C            3.49549229229063       -3.67152402671543        0.57219359033821
C            4.00189973675477       -2.38685708834105        0.29491911052598
H            3.13845925205059        0.89344093669298        0.36103207942449
H            5.42207071271299        1.11393279505123       -0.53251734718675
H            6.79599924024868       -0.85849385406583       -0.90206516295507
H            7.96826523609787       -2.51477691821759       -0.82183121382926
H            8.00224860196791       -4.17871100509672       -0.85552378893075
H            9.44408139156756       -8.77850484474740       -0.21663812312212
H            9.98538608500412       -5.99591185140024        0.33030077678188
H           11.19519457089904       -7.28286777097276        0.35570634516066
H           10.24432762664324       -5.88029001605272        2.68199476802946
H           11.55262687110848       -8.41657687784545        2.54708383512810
H            9.30637336552812       -8.33793453387171        3.63808525068951
H            6.95002414809037       -7.39066301262323        3.28048415522953
H            7.66518464020274       -6.14951955859926        2.25449024491093
H            8.26657302101441       -6.47289308374180        5.01413998311846
H            5.68081730141546      -10.59489227125027       -2.20545770432338
H            3.03161256257600       -6.93693656309775       -2.63087210460486
H            3.87742356464853       -5.67060085917928       -1.94868674055938
H            3.85034666151740       -5.75909924924553        0.58598529961010
H            2.49532461786225       -3.76104967161402        0.95698084818915
