17
 energy: -3.899226627873 gnorm: 0.000603210832 xtb: 6.5.0 (97a52f5)
N            1.11205479350223       -0.05785911892955       -0.00576389322956
C            2.27294249836533       -0.06870767530753       -0.00228977831465
C            3.67341491163863       -0.08631060455844        0.00254218459275
C            4.38830160506848       -1.26542914650541       -0.03329752075614
C            5.78961246195461       -1.28362912712528       -0.02842360837083
C            6.51504615616759       -0.12395526416740        0.01203999138282
C            5.82412740055742        1.09837844980775        0.05007584372549
C            6.25682673548656        2.44947641797988        0.09263642961803
C            5.13948608853219        3.23724545054271        0.11368282232882
N            4.01840635168760        2.44179642417614        0.08653243061045
C            4.41516185856893        1.11714071812067        0.04567783462251
H            3.84464715119815       -2.19414620332470       -0.06665435606789
H            6.30314554246341       -2.23045368736715       -0.05768972735989
H            7.59056004223278       -0.13193730375113        0.01519098760567
H            7.28050332514262        2.78395417406173        0.09826850163195
H            5.12396289579562        4.31629386810333        0.14242844030871
H            3.04883018163784        2.75689262824441        0.08883341767178
