19
 energy: -4.279857250796 gnorm: 0.000850772623 xtb: 6.5.0 (97a52f5)
N            3.14488685305632        1.60574503375900        0.01338023809251
C            2.30722730881513        0.80121811133500        0.01330347330311
C            1.28410767459848       -0.15732870185901        0.00888950862263
C            1.60007052442542       -1.49305560364928        0.00744579084472
C            0.60524485514919       -2.47322671761473       -0.00055887675615
C           -0.71085194430043       -2.12312492789782       -0.00742516802265
C           -1.09281237957844       -0.76418059158349       -0.00531248166271
C           -2.44948802815276       -0.36957626761456       -0.01151802620273
C           -2.78986352113778        0.94883043726910       -0.00677985009398
C           -1.79834589545778        1.93585652899634        0.00441753121542
C           -0.48185203343125        1.58882262145392        0.00962081900300
C           -0.08932338022162        0.23317504081419        0.00431415906701
H            2.63716144500855       -1.78218152646760        0.01173361530219
H            0.88476694513035       -3.51389869493930       -0.00203530718542
H           -1.47515583833125       -2.88052039289772       -0.01461409623380
H           -3.21302933819977       -1.12781716528060       -0.02017067940654
H           -3.82806130167562        1.23729595876081       -0.01154114789775
H           -2.08184674421045        2.97545778086160        0.00922393159913
H            0.27982479851374        2.34785907655409        0.01826656641206
