15
 energy: -3.251045579959 gnorm: 0.000740570749 xtb: 6.5.0 (97a52f5)
N           -2.95266621697391        0.58665012190875        0.00630991169047
C           -1.79597938236480        0.48271759709724        0.00031710531960
C           -0.40280357165817        0.34767985397535       -0.00541987883724
C            0.40534382883502        1.47479531705436        0.02424845296620
C            1.77886851860781        1.36169266403233        0.01775656549008
C            2.37008675173436        0.11310776867733       -0.01900863252280
C            1.59094757015955       -1.01869391827053       -0.04792957608553
C            0.19649591255714       -0.93103231304740       -0.04154937629673
N           -0.57951817318481       -2.07763409814974       -0.06588297926613
H           -0.05767280760282        2.44656698512681        0.05474804540578
H            2.39247440379669        2.24731415824310        0.04338472424337
H            3.44448535758634        0.02735469195563       -0.02720935229017
H            2.04991240576250       -1.99114792497086       -0.07951120501538
H           -0.18882801994642       -2.98737433879114        0.10749578805807
H           -1.56790657730839       -2.04468656484119        0.11075040714036
