92
 energy: -18.893100991429 gnorm: 0.000330900785 xtb: 6.5.0 (97a52f5)
C            2.94865012473165        1.22726411939454       -3.44226939993834
C            3.68825087846759        0.80972993508468       -2.15607384268971
C            5.06013593777611        1.50984255102380       -2.13700246655733
C            2.85458547287635        1.27002451880922       -0.94542726209973
C            3.89099271589283       -0.71203404513551       -2.08250727870892
C            3.42445684290473       -1.57802579932598       -3.06522310985950
C            3.61042463791483       -2.93900066935308       -2.96208619592619
C            4.27182439517618       -3.48713209245170       -1.86986040129008
C            4.45424587479002       -4.94360020822253       -1.74436520963341
N            5.10162293241465       -5.38204533768516       -0.67704088996631
C            5.20937330769672       -6.69948334203729       -0.59709045900975
C            5.90975378281969       -7.24326713921280        0.57749059107195
C            5.85866814559500       -8.60277944089828        0.87976211020290
C            6.50021204774772       -9.10040012660857        1.98828387179494
C            7.22599267169546       -8.25637012731920        2.82396947598583
N            7.88951889969907       -8.76688933170527        3.99351056305607
C            9.25585065197323       -8.60697351198256        4.30614476571842
C           10.30282123720001       -8.03369788802084        3.58457810729723
C           11.55792750964030       -8.01808908409393        4.14241025957573
C           11.79293727897764       -8.56295388312773        5.40960069440074
C           10.77416847038183       -9.13201457893847        6.13349463735142
C            9.49456222131445       -9.15723102300479        5.57700163722364
C            8.24146848734826       -9.65860604298314        6.06142085268623
C            7.86989584703467      -10.26708732697815        7.28532869256172
O            8.61238971668071      -10.59911209043064        8.40208880881341
C            7.72125288055624      -11.15635070248672        9.30846860885755
C            7.93140811386846      -11.65844431181053       10.59853050448265
C            6.86809138205017      -12.15697108487832       11.30501488820850
C            5.57868545499041      -12.17335413610534       10.76038211031067
C            5.34223334111184      -11.69071397319389        9.49930853796075
C            6.41694751531214      -11.17927577410910        8.76495932646327
C            6.51228155889869      -10.60563113490902        7.45957217226410
C            5.54551981320638      -10.35570877179065        6.45951921807724
C            5.92077199798731       -9.76599772401268        5.28492003309779
C            7.27210057964465       -9.41537348106100        5.08124049114221
C            7.28709386959314       -6.90004372533353        2.51937403867299
C            6.63474461543417       -6.40182826337092        1.41883970106233
N            4.73677598136069       -7.56169497654201       -1.48422914625002
C            4.12550885398872       -7.00706265681552       -2.51933494397912
C            3.59824119186696       -7.90870998393868       -3.55853020382651
C            3.75448674626781       -9.28581801789184       -3.45816306152792
C            3.27427384268426      -10.12492910990129       -4.43944375894943
C            2.61990255883766       -9.62221734918001       -5.55854544803858
C            2.07909299083398      -10.52691397620449       -6.67735802594071
C            2.36283976593041      -12.01585666726623       -6.39747700693363
C            0.55520900311280      -10.33684309774991       -6.79486215530068
C            2.75288799500985      -10.14780550003436       -8.00979872800787
C            2.46175794189470       -8.24499627782141       -5.65148785553735
C            2.94054493194942       -7.40287959577271       -4.67307631239992
N            3.95175661201875       -5.70715760590093       -2.70147378571634
C            4.74345153175345       -2.62456295852529       -0.88797206333129
C            4.55462359798642       -1.26498151388975       -0.99431240801847
H            2.81802161242681        2.30835173886079       -3.47854548263056
H            1.95867487297716        0.77508351650581       -3.49018347376278
H            3.50840803528434        0.93333651640437       -4.32945849372298
H            4.94664593685173        2.59100759281180       -2.20880883003077
H            5.67270918718522        1.17841315801085       -2.97466774878497
H            5.60340172004263        1.29337545971117       -1.21850340577392
H            2.67828282362928        2.34458930204092       -0.97927702029016
H            3.36050788756843        1.04515378287389       -0.00775668353969
H            1.88703733859840        0.76946641185321       -0.93204770604882
H            2.90628053317238       -1.18715915360225       -3.92252252388749
H            3.24054623466763       -3.59899628127065       -3.72698721027011
H            5.30168564551031       -9.25688424995694        0.23223727881064
H            6.45707327064767      -10.15003722427916        2.22094725475300
H           10.11552767753294       -7.61989991863856        2.60987121047229
H           12.37625189175766       -7.57886310841950        3.59594260620799
H           12.78790983173717       -8.53496328718197        5.82244878180020
H           10.93833056644394       -9.55321973535838        7.10949372968222
H            8.92319862167582      -11.64200836760574       11.01339569906995
H            7.02558972561825      -12.54265823214377       12.29894958134934
H            4.76243831834342      -12.56972167831919       11.34160063111897
H            4.35507177635746      -11.69667790243683        9.07195307867810
H            4.52058013469572      -10.62824537358586        6.63828107915791
H            5.20151015263997       -9.55616761493413        4.51398498035075
H            7.84183227745997       -6.24643066494709        3.16964000424264
H            6.67441875895804       -5.35112049879691        1.19127985983295
H            4.26184428919859       -9.68683485303787       -2.59835083423961
H            3.41413994810916      -11.18557702429500       -4.33134790162297
H            1.88681021130982      -12.33903696805210       -5.47242161904316
H            3.43326347542380      -12.20367265055342       -6.32158320444109
H            1.97559703434219      -12.64024409689194       -7.20206224165470
H            0.06328358859498      -10.58180587461419       -5.85419602179392
H            0.14099172616292      -10.98057250148571       -7.57009469472073
H            0.30248662432929       -9.30809974205062       -7.04686514451891
H            3.83460124487334      -10.25562060329344       -7.93814470604769
H            2.53685514041430       -9.11646487077853       -8.28426054285522
H            2.40291193690857      -10.78748396718261       -8.81927662701243
H            1.95724773688120       -7.82818764938536       -6.50566253488730
H            2.81341612344131       -6.33817025045074       -4.76026512447520
H            5.25541537068605       -3.03903568545863       -0.03736221320729
H            4.92466596040419       -0.61871311432971       -0.21759706487083
