56
 energy: -12.298661277020 gnorm: 0.000894915119 xtb: 6.5.0 (97a52f5)
N           -2.83559093219839       -0.34462711022071        1.49618838287455
C           -1.75103420737765       -0.25146355614342        1.09158859269676
C           -0.44115534323239       -0.11363832989766        0.61083626913672
C            0.22300158354374        1.09796560530534        0.74105899256954
C            1.51032010092371        1.25386099288212        0.27385579623348
C            2.15924045317065        0.19609207305607       -0.33356911829955
C            1.52128265156313       -1.01391374862773       -0.47320951436633
C            0.22029449458575       -1.19142685855035       -0.00900168246969
N           -0.43323644383045       -2.47020742028419       -0.17526775283243
C           -1.25439213294300       -2.70201803588549       -1.31418727067082
C           -1.55802154898830       -1.65458020415109       -2.18046795271762
C           -2.35481717263437       -1.85256506313096       -3.28297627390772
C           -2.86141577248597       -3.10780327890654       -3.54313042885263
C           -2.56045683180823       -4.15673009346372       -2.69886825883637
C           -1.76305018076814       -3.97824688182628       -1.58041957398617
C           -1.37161049764117       -5.18372280602857       -0.71381555447734
C           -2.62731100184070       -6.05521783135066       -0.54393719425606
C           -3.60534787252225       -5.68073765337203        0.36541729734413
C           -4.76892483397762       -6.40927330700370        0.49869679996549
C           -4.98117942821950       -7.51975580268784       -0.29008984374827
C           -4.03118092179396       -7.89222991296171       -1.21709458314021
C           -2.86876574271720       -7.16082195139206       -1.34695781730249
C           -0.22395408907153       -5.95096357949253       -1.39466625106578
C            0.12307345196155       -7.22978793131625       -0.98327796634398
C            1.17835673471738       -7.90350072187182       -1.56278703219845
C            1.91756383785716       -7.30262159728557       -2.55891261160329
C            1.60192734354897       -6.02413006215769       -2.96633413637995
C            0.54574945407779       -5.35533888772930       -2.38391611745125
C           -0.85745371258663       -4.73790180671960        0.66240097736905
C           -0.80955115162637       -5.63637868890721        1.71567074633715
C           -0.28018413058392       -5.28272085553987        2.93982536089345
C            0.22166633047257       -4.01309720925666        3.12865400475029
C            0.18139325818854       -3.10523429105933        2.09757493225778
C           -0.36060062939199       -3.44435122964631        0.86014449592324
H           -0.28503079358011        1.92116438139881        1.21386639591728
H            2.01066590760334        2.20212729148720        0.38216209554590
H            3.16497163699722        0.31999461213555       -0.69975119644005
H            2.01706999732245       -1.84368448564848       -0.94567475937687
H           -1.16375339363170       -0.67631310775771       -1.97107527570848
H           -2.58297365316037       -1.02992724721784       -3.94082767936290
H           -3.48477824789365       -3.27106985718224       -4.40695254403394
H           -2.94210000242943       -5.13858293838408       -2.91573707430747
H           -3.44762070996847       -4.80327492784401        0.96870207022836
H           -5.51350927898722       -6.10788572851492        1.21719156715471
H           -5.88928222773780       -8.09093721226048       -0.18664748602584
H           -4.19779110985723       -8.75359636294250       -1.84286152648873
H           -2.14386101184577       -7.44113435123167       -2.09099245350731
H           -0.44661969230370       -7.70454851507601       -0.20431251746662
H            1.42513785426704       -8.90028249809922       -1.23548163379820
H            2.74181354322648       -7.82807187104190       -3.01286074460041
H            2.18288492281004       -5.54556585735551       -3.73765764608594
H            0.31812046557435       -4.35034690939959       -2.69170964197503
H           -1.20057509122058       -6.62845180494671        1.57455833700786
H           -0.25487227767236       -5.99882022754774        3.74455911499780
H            0.63964030307309       -3.73199936342619        4.08145792611199
H            0.56039774304796       -2.10962498351663        2.24346895877548
