42
 energy: -9.929170676259 gnorm: 0.000852952682 xtb: 6.5.0 (97a52f5)
N           -3.08765467912232       -0.09485035950618        0.04383212906730
C           -1.92717790950610       -0.06591671322929        0.03117538619467
C           -0.52568635934498       -0.03226305887053        0.01615638345810
C            0.22900419672854       -1.08353291199520       -0.45733291207362
N            1.53722506303854       -1.07443301798501       -0.48073491841933
C            2.13350433811869        0.03186964299246       -0.01286366209302
C            3.60568244903001        0.06636959122874       -0.02798791475091
C            4.32708158721289        0.70506358466429        1.01915076370673
C            3.66182137111860        1.31884966192306        2.10550833451992
C            4.33669923029266        1.91404854339766        3.12486577107093
C            5.73150422267354        1.93094334507349        3.11886251485169
C            6.41159550764655        1.34770948272224        2.09613790565234
C            5.75168189056136        0.71485642922827        1.01759472547689
C            6.47894570500258        0.13331471680386       -0.05811394276421
C            7.95094031526765        0.17600210444562       -0.07945061305177
N            8.59007253941463        0.04712074703338        1.09256909474363
C            9.89705434016631        0.09304822129717        1.04863876879349
C           10.60894969075014        0.25757422748346       -0.11981288327323
C           12.01006636425749        0.30089531263472       -0.14200543396169
N           13.17018895143782        0.33799253742641       -0.16113832325708
C            9.85340945699003        0.37587756074962       -1.26611160814299
N            8.54544438562619        0.34064973095986       -1.27029617268387
C            5.75724267655628       -0.48556128929452       -1.11650225501873
C            6.42363197782603       -1.09269930248916       -2.20588095570298
C            5.75008180260813       -1.70555816533077       -3.21557767725462
C            4.35587664652465       -1.74682536762768       -3.19638890345225
C            3.67533555632500       -1.18097051457383       -2.16418715259933
C            4.33393823727253       -0.53944594729408       -1.08983652405756
N            1.49502367882287        1.10937609763812        0.46682586435548
C            0.18762661620983        1.05487025799926        0.47264814469041
H           -0.26945331543753       -1.96510222784804       -0.83131816510486
H            2.58900224317789        1.32663976783130        2.11490122304242
H            3.79805163379437        2.37788685777929        3.93517861988081
H            6.26592114705034        2.40120254460543        3.92826499377090
H            7.48435123358741        1.35370634594523        2.11182338018151
H           10.43053982529734       -0.00239103117128        1.98210894983874
H           10.35090399899581        0.50622105365618       -2.21534875936716
H            7.49542032905836       -1.05387808461786       -2.24073545477496
H            6.28912877513703       -2.15480800185791       -4.03381109719015
H            3.82238960541621       -2.23251689193889       -3.99728418407998
H            2.60374374539888       -1.23399800707780       -2.15402712459125
H           -0.34477907098461        1.91156252718769        0.85763368437090
