18
 energy: -4.066432003202 gnorm: 0.000520177491 xtb: 6.5.0 (97a52f5)
N            1.13055106451417       -0.06032561634450        0.14864239675628
C            2.28948693707031       -0.02529889405501        0.08864898547397
C            3.68206362188777        0.00309302977410        0.01716176512014
C            4.40288148337986       -1.15377248450772       -0.03471699960407
O            5.75143956273475       -1.24911880337188       -0.10534648992385
C            6.46988264097376       -0.06560288713257       -0.12784044898442
C            7.86664901556834       -0.11143992395745       -0.20001608931753
C            8.60577671446374        1.04112755604611       -0.22312969294236
C            7.97623272747487        2.27695406731458       -0.17531450470845
C            6.60870847884159        2.34840026306413       -0.10431599428960
C            5.83944916616766        1.19033123206763       -0.07952280017450
C            4.38759031027833        1.26077755626446       -0.00178633238408
O            3.80909735206493        2.33928383293734        0.04532743520970
H            3.88467238690462       -2.10353722260270       -0.02049935026274
H            8.34384735366503       -1.07581138070887       -0.23670670859622
H            9.68157250571272        0.98934871526265       -0.27940621833038
H            8.56365538901102        3.18122562151185       -0.19398767282043
H            6.10537328928653        3.30088533843788       -0.06560128022144
