51
 energy: -11.827058316409 gnorm: 0.000628630563 xtb: 6.5.0 (97a52f5)
N            4.23980463454904        1.32493334572992        3.57761753131557
C            4.62509141247219        0.92291305595859        2.55733316294584
C            5.09533094132612        0.43607379937277        1.31732881716732
N            6.07569187553640        1.13229410668176        0.74491177163500
C            6.52426085970022        0.66533983081772       -0.41467879291264
N            7.63357829044441        1.31769860640076       -1.04920602553543
C            8.66067950745469        1.96080863908021       -0.33460213508195
C            8.81964938613075        2.17280643073871        1.03319671534756
C            9.94261482955420        2.82355187846862        1.47843577100181
C           10.91594007201484        3.27040866837120        0.57997564265189
C           10.77563493493271        3.07077641687044       -0.77220899061640
C            9.63766659439408        2.40912232488156       -1.23750553026829
C            9.19149562865229        2.04679900908766       -2.55951502435339
C            9.75426592724243        2.24680189074616       -3.82102063615229
C            9.07199176507336        1.79939272631877       -4.92521549855627
C            7.83505254593588        1.16340333926546       -4.79390145268692
C            7.27126520485019        0.95808294035934       -3.55939039325446
C            7.95538746695950        1.38932774712468       -2.42226170168505
C            5.98575159490299       -0.47053299357108       -0.97005410547643
C            4.97415416613372       -1.12085580716387       -0.30424310904992
N            4.44483769122435       -2.33940808880104       -0.84808505088558
C            4.18358212916939       -3.49552631593710       -0.09195955010254
C            4.30397220088660       -3.72989024523168        1.27572993763836
C            4.01165540364511       -4.98021800664834        1.76008166137861
C            3.59898213583765       -6.00435905938650        0.90223633817778
C            3.47353608322457       -5.78919169977238       -0.44912611008155
C            3.76973959678299       -4.52257016640701       -0.95592497280951
C            3.74997307229381       -3.97365935329997       -2.29018657469878
C            3.39846271527465       -4.52031585293879       -3.52548499492526
C            3.45173901122292       -3.71894417746052       -4.63971959201362
C            3.84037959584768       -2.37982578452433       -4.54431135058482
C            4.18958487232089       -1.82872217661629       -3.33673690506298
C            4.15903823058978       -2.63163859775266       -2.19713589023935
N            4.51928904800808       -0.67337894405407        0.85955918309899
H            8.05627744113466        1.83408616184505        1.70867575592031
H           10.07530317025068        2.99569604633646        2.53380860589252
H           11.78831704332145        3.77981445021424        0.95473293523951
H           11.51994946759576        3.41259380451905       -1.46934417252171
H           10.70272182806869        2.74577416040064       -3.91247558640849
H            9.49151558635586        1.94631705005947       -5.90675787968841
H            7.31368960642484        0.83339738540667       -5.67741540644549
H            6.30520172220761        0.49975757228753       -3.46495913279745
H            6.39291493341919       -0.88752665090159       -1.86960795899184
H            4.61216116582838       -2.92826981715485        1.92158696585040
H            4.09943204207352       -5.17581354437683        2.81605078036066
H            3.37586117181648       -6.97706807082442        1.30845647745168
H            3.15750039455429       -6.57284760123736       -1.11460825752952
H            3.08938976619573       -5.54857599804009       -3.58871237968732
H            3.18200003947537       -4.12492779801335       -5.60062915405243
H            3.85931828791916       -1.76947756185691       -5.43215189420476
H            4.45335690878266       -0.79074707538101       -3.25206184371591
