68
 energy: -14.136996931943 gnorm: 0.000520474986 xtb: 6.5.0 (97a52f5)
N           -2.41216932499818        0.96109170054356        2.04679236819206
C           -1.68388819471555        0.55485584003549        1.23676098895788
C           -0.78254036629893        0.08877161699549        0.27025125725290
N           -0.11614927920374       -1.02943906460616        0.52096401105028
C            0.79391586047923       -1.36082623504246       -0.39122399407022
N            1.68990896659948       -2.40991586464490       -0.04879079477020
C            3.13623736597386       -2.35555787009223       -0.34467317296832
C            3.80689414976617       -1.05829979559457       -0.00367276668624
C            3.17177696311825       -0.06557532506972        0.72717679062097
C            3.80409032097938        1.13324879895758        0.99522810156007
C            5.08711085270949        1.34850288964820        0.54729472492378
Br           5.95098354271521        2.98927381173328        0.89404075827446
C            5.74004280350160        0.36752283747527       -0.16387888162189
C            5.10356480471473       -0.82872829173592       -0.43822874326498
C            1.31279072485114       -3.33476223075855        1.02605731849503
C            1.51845612925318       -4.76553276328603        0.64708688269717
C            1.95883644323056       -5.69729196720936        1.57454563433108
C            2.13276764997006       -7.02012775482305        1.21090307827113
C            1.86448930213431       -7.42226829293595       -0.07852454580853
Br           2.10465310256659       -9.22777168445291       -0.57268910066460
C            1.42079475823619       -6.50785182462314       -1.00730738311448
C            1.24609259547284       -5.18551453353499       -0.64408134918187
C            0.95168889291459       -0.63429527775640       -1.59036769881807
C            1.81502677998844       -1.10696169605290       -2.58947786102672
N            2.52235440926131       -1.49826652107154       -3.42500059837776
N            0.31864834539958        0.50849143045292       -1.81854345390344
C           -0.52714976416564        0.88318033790515       -0.86401251349372
N           -1.11321562237185        2.18516895957895       -0.97008392772335
C           -0.22686540071560        3.30059380920113       -1.32927607596872
C            0.68633305605116        3.67891459549239       -0.20602153535108
C            1.83038539599249        4.42511800422785       -0.44110873786948
C            2.66521530152711        4.77820695841204        0.60352323444631
C            2.36319966912043        4.39170873052041        1.89025031548631
Br           3.50669577665949        4.85545075395049        3.31673275289695
C            1.22742806138268        3.65574993113346        2.13886244862080
C            0.39464788075194        3.30375799831343        1.09458602938089
C           -2.56263390866707        2.36850265585126       -1.17473491390135
C           -3.07680958666302        3.63626037176472       -0.57273088076618
C           -3.18247816029940        3.75742201249358        0.80229710426923
C           -3.59478874934939        4.94306517923217        1.37750295126304
C           -3.90585975419074        6.02135704841966        0.58042654514880
Br          -4.46127696673179        7.64540282871303        1.36490116121587
C           -3.80892005195986        5.91611761522808       -0.78899097436066
C           -3.39455296737960        4.72911465324197       -1.36461556574968
H            3.26887294319260       -2.57319368405212       -1.40687002336512
H            3.63097064221440       -3.16838398531481        0.19335403925753
H            2.16228441519765       -0.21940875118110        1.06206839830646
H            3.29465322279492        1.92117228873074        1.52475734721899
H            6.74503068536344        0.54878616412316       -0.50915601912205
H            5.61040799371844       -1.59155744263738       -1.00404235146380
H            0.26041522853335       -3.16900428486609        1.27081856263767
H            1.88922478033444       -3.08155734822287        1.91968675752078
H            2.16496933525578       -5.38269107180945        2.58303645496099
H            2.47697188321932       -7.74765643764344        1.92790108696541
H            1.21425039355480       -6.83564841727302       -2.01312116219634
H            0.90328153365293       -4.46359445298006       -1.36476480513479
H           -0.82547403678347        4.16336589922890       -1.62872957458780
H            0.35647805811780        2.99749239067440       -2.20245851661280
H            2.06632053640526        4.72551633823124       -1.44737486773385
H            3.55971727289548        5.35182968428928        0.42364159472451
H            1.00031697083744        3.35868877995336        3.14984805438372
H           -0.48556861974552        2.71597578055119        1.28110757316433
H           -3.08612658779523        1.51286508047617       -0.74138277183177
H           -2.76114933720934        2.34392840307554       -2.24910109649238
H           -2.93725770662993        2.91274962027106        1.42062475997063
H           -3.67411146895276        5.03824658838172        2.44826325508920
H           -4.05534425211540        6.76861083123000       -1.40081323963180
H           -3.31087569366329        4.64947365055337       -2.43478244392488
