68
 energy: -7.128912000380 gnorm: 0.013885717539 xtb: 6.5.0 (97a52f5)
N           -4.25934191581830       -2.13331012877062       -1.96888520535495
C           -3.22903718764142       -1.91711818164560       -1.47484566632461
C           -2.00694784832361       -1.66317441468168       -0.92100774291020
N           -0.87243588700111       -2.02837469875565       -1.42150875026150
C            0.10208541956558       -1.63215645703614       -0.66275927386542
N            1.39633781129257       -1.84188181748179       -0.86714127935955
C            2.29038390639390       -1.47591714543797        0.09548650730923
C            3.26202733400449       -0.56439518180187       -0.30208364386055
C            4.37112631939819       -0.28186040144160        0.35017419227359
C            5.31227850582192        0.57907669916856        0.01098118177827
C            5.36365720739028        1.37091478017484       -1.04372705962491
C            4.53063250610794        1.66770499825192       -2.09884357342089
C            2.07960265248909       -1.40246613131457       -5.72067946742806
C           -1.95618605108063       -5.56557719687750        0.44093065963646
C            2.63630209574202       -5.67611535525142       -1.37315142207133
C            1.49631220252348       -6.38191783290531       -1.30780455034214
C            1.15675983803649       -7.34411470713535       -0.47040494001809
C            1.76655037398742       -7.85092485850966        0.58901670518102
C            2.85759263141778       -7.47953906101792        1.23647184978220
C            3.61772218049141       -6.34777637730935        1.40152168564143
C            1.30286920596293        0.37539488531707        2.81383335679522
C            2.38378651981851        0.86585037921883        3.19524982005458
N            4.56885256677597        0.31743882368185        7.52764244321365
N           -3.54116410837805        0.37190583655449        3.21886486003890
C           -3.53453626672138        0.45842289810804        2.10605009677718
N           -0.49667178507787        4.27374495009798        2.44609046546183
C            0.29827616852381        3.63435642381396        1.73300169788360
C            0.64128942615656        3.82552675076442        0.47359230862572
C            1.71978978040596        3.12879726497470       -0.03568552623243
C            2.89178101123056        3.20678590329686        0.75268264414836
C            3.71638561501535        4.24685364436213        0.97280690442223
C            3.62222145068993        5.49592750551186        0.39132939843649
C            2.72190301459683        5.83490977513463       -0.48735613299099
C           -2.34494976305897        1.91755945913589       -1.06951368837630
C           -3.09881161443009        5.44233466836457       -2.26798638186470
C           -3.27817781139396        5.02208906346195       -3.43422339844228
C           -4.76998843220644        7.46080367845763        0.00482206602935
C           -5.81953727578993        6.86941924091757        0.59699571621445
C           -5.96136474201010        5.58636218901286        0.87023998407795
C           -5.12973746094550        4.64083742434763        0.63177324370032
H            5.44957737290412       -3.66512833703531       -2.14987684870243
H            3.62220328875470       -3.69916594679601        4.07411732166319
H            7.57547628509355       -3.04232326491834        1.50408443282974
H            8.64628900750744        1.19865944576903        1.42820959909810
H            7.09262216271796        4.11595248426042       -2.26827200921626
H            3.31501000619349        2.80926861637706       -3.94283716104437
H           -0.30533431410427       -0.86133008038052       -3.28474005945415
H            0.20798845293729       -4.04899686802274       -1.67831808470942
H           -0.74086978620261       -3.62093871563797        3.51697084949792
H           -2.59505300854800       -5.92215691493618       -0.28183302755349
H           -0.05519029467364      -10.92819287366666       -1.16751750284870
H            4.59767713803760      -10.80027662699568        0.41342785849516
H            6.01603396603936       -6.85879819849664        1.62310529431897
H            3.59017134009547       -4.80977751080139        2.94951654720235
H            0.39640238859874        5.56126055897687        0.74187731904848
H           -0.89016364502237        2.96867249775250       -0.03896226593577
H            1.42769396629340        2.10945658440761       -0.23142955082950
H            5.97210614788661        0.31361552337627        3.26599559757632
H            4.52612046599980        4.07796248880955        1.66312401997889
H            4.34808128015422        6.24516607322571        0.66948552056619
H            1.76530873535960        8.15056388174387       -0.48569959557524
H           -2.99255031350472        0.97977746069042        0.75143714802932
H           -3.14944285737329        1.96996211745822       -3.27574997353595
H            0.17115594783238        4.48431967040535       -1.21262399359460
H           -1.90444969109916        9.15449350618454       -2.32943051888167
H           -5.99520384636632       11.25734180228632       -0.02282872664544
H           -8.08468397120553        5.53806532081094        1.97940353266174
H           -5.06315380650994        2.21686001203169        0.86860418733406
