68
 energy: -11.110944379927 gnorm: 0.004010548813 xtb: 6.5.0 (97a52f5)
N           -3.29106973452297       -0.15378559578810        1.78820365795368
C           -2.23958340379742       -0.11072938147834        1.29384462513919
C           -0.97205176168474       -0.05889928260791        0.69739557851330
N           -0.13692920665782       -1.06673963810723        0.91096545194821
C            1.06700029780570       -0.92710197487091        0.36332622084882
N            2.05420265575139       -1.89819846968808        0.69301398664604
C            3.42075086580108       -1.49673094726787        1.09362837759582
C            3.45113376496726       -0.29572349493095        1.89623612849220
C            2.64227635982535       -0.00115247826569        2.92536097412797
C            2.67147023302309        1.18840180689547        3.62913374707978
C            3.51244983708940        2.21241004121313        3.38564516790646
C            4.51344400680625        2.51171665567387        2.49671751771233
C            7.74901411471157       -7.15584790482194       -3.40733460759310
Br           8.43160828396278       -5.64704456977363       -3.88967223354872
C            1.60809459960843       -3.20058053512527        1.21016809274353
C            2.37976999566398       -4.30488880467242        0.69690360167166
C            2.62552926841733       -4.55971079389152       -0.59703339547824
C            3.36891518504855       -5.63233156111510       -1.05338673397208
C            3.95088060647007       -6.56370756520606       -0.27320549212304
C            4.06033218444906       -6.82366521170168        1.06921893985578
C           -7.27172192493667       -8.18803443381714        0.87974203057481
Br          -6.03566665257141       -9.33651722921125        1.24737123496398
C            1.38888965911143        0.17007078899913       -0.46109710241199
C            2.62012650033192        0.21187774118153       -1.13049616784051
N            3.62833112194410        0.27152180223822       -1.70612531913344
N            0.56457392605093        1.19065969211551       -0.64857603364681
C           -0.61072949954612        1.08725830884763       -0.03704290711845
N           -1.50552225796029        2.20530881516436       -0.11617702951797
C           -1.12606526570711        3.49745672953968        0.48978418772531
C            0.17437584092076        3.96437106650443        0.06486731461370
C            1.13308528688807        4.50806047762304        0.83311116560709
C            2.36780546921849        4.91772452622008        0.36640850834418
C            2.77931247471914        4.84841425480827       -0.91465728126807
C            2.26373321792973        4.43802088469920       -2.11766710264869
C           -1.85281110025747        2.12037032775524       -6.74217762971937
Br          -1.25511090992713        1.11499159039016       -5.47089076840405
C           -2.89061191913077        2.06366390989509       -0.60564310154119
C           -3.25334590094273        3.07408532344948       -1.56881860271702
C           -4.39769210643506        3.14928011340434       -2.26779347859285
C           -4.69512248121376        4.15883880595486       -3.16447690279987
C           -3.89057110041464        5.19865135245297       -3.45788954538126
C           -2.64685711944449        5.64276360872459       -3.08456594067516
C            1.59162390876855        6.33414769340366        4.19405184445412
Br           1.25326353587932        7.49392137280043        2.96554949565745
H            4.01525341948120       -1.35566155305196        0.18685016983355
H            3.88481223976475       -2.32068622125559        1.64394479902453
H            1.90161440985104       -0.73495951344609        3.19886867096376
H            1.96461099859213        1.31966424112183        4.43274361744082
H            6.52159510119476        4.50834798218333        3.57267638297834
H            6.22140314256928        0.86868133136342        1.68007692297802
H            0.55489033295552       -3.33001861775039        0.94337259667920
H            1.65429892994176       -3.17990283411324        2.30290467671835
H            2.21307606756483       -3.87620393440485       -1.32121906417012
H            3.50084331199859       -5.74013296327792       -2.11765370784202
H            5.20693100874491      -11.21968043144967        0.03307851381015
H           -0.47622645058186       -7.96581404964257        0.27956700038743
H           -1.14996555094304        3.37255902004100        1.57671171962613
H           -1.88629097430807        4.24388976519889        0.24157882980339
H            0.92310096370999        4.62439438683734        1.88453224914561
H            3.06787370096427        5.32393422797763        1.07849887973373
H            7.05032368861237        4.07345953337957       -1.60551601964874
H            2.84027045956033        2.40047495532600       -1.77195274979066
H           -3.56447631823104        2.09953649637188        0.25499080206602
H           -2.99467394011092        1.07067493218847       -1.05255700135262
H           -5.12565376303016        2.36916081497607       -2.11506067774285
H           -5.64420401299021        4.12092376645997       -3.67436546061611
H           -6.49768134033501        8.63690484670530       -1.15111584243340
H            0.80554371582322        8.80950599739058        3.32075421725742
