68
 energy: -11.260102925133 gnorm: 0.001897025615 xtb: 6.5.0 (97a52f5)
N           -2.73067998675308        0.20652478088768        2.70486904169193
C           -1.86857875081453        0.25417105111137        1.92665464668760
C           -0.82120010250395        0.31209107611239        0.99709132437560
N            0.11233882625752       -0.62857954489923        1.05460477118054
C            1.13589315620356       -0.46568075401119        0.22091374152770
N            2.25177230163818       -1.34006733389975        0.37662892010531
C            3.60240244098120       -0.79414556177676        0.62755436334767
C            3.74829661816845       -0.19915609337106        1.93627632915974
C            2.78955695937383        0.35421580588755        2.69528080850146
C            3.01096507518832        0.96858474989753        3.91184742784014
C            4.21603816684376        1.12448545941741        4.49171380889083
C            5.52073832333874        0.83127082976638        4.18482661414538
C            8.34272833098425       -7.78671019185561       -2.18181784742680
F            7.15033173038151       -8.05597392263328       -2.12407298890048
C            2.01893367437782       -2.66448670434997        0.96782074807148
C            2.75031003222602       -3.70849475187905        0.29590111705197
C            2.77327779814743       -3.92322317630857       -1.02759687808618
C            3.50256150446706       -4.92386074721379       -1.64351263977590
C            4.28569648016048       -5.81686321102237       -1.00801349205744
C            4.64970591353896       -6.08838885320249        0.28720268339202
C           -6.36883615574003       -8.80181434088414        1.04124570859338
F           -5.95725961706959       -9.97448961665173        1.33851808394708
C            1.17979078783456        0.58852362162527       -0.71099951944657
C            2.25521849812147        0.68958508808324       -1.60320800109413
N            3.15728773214251        0.80308053123164       -2.32748624934543
N            0.24534880716042        1.52618018515773       -0.77124352254390
C           -0.74495062593471        1.40015944880921        0.10639635412066
N           -1.69158249601664        2.46420595214720        0.17992736332030
C           -1.24369435432314        3.83298680336689       -0.12084406014316
C            0.05272527597989        4.12818350567631        0.43921538728369
C            0.42733720760284        3.93727445646649        1.71378611130055
C            1.71604782243975        4.11044416647520        2.18274811192205
C            2.77674421458183        4.45847984960220        1.42922284422513
C            3.03156835406263        4.70410318726531        0.10383276455544
C            1.18572203176870        0.96647073889411       -8.18304102807323
F            1.43790521746986       -0.06891597412049       -7.58169697730730
C           -3.15026667415120        2.22211676831080        0.15530206270455
C           -3.79738660727616        2.76964902819810       -1.01130907075204
C           -5.10047535931469        2.68615727587301       -1.32465239504862
C           -5.66591006827173        3.24890033538233       -2.45391806165059
C           -4.99823070624935        3.95891134931761       -3.38381907304059
C           -3.70783607758307        4.37339049720991       -3.59554825372263
C            1.43585335624421        8.98591862599139        1.95309013545188
F            2.19197742638766        9.22880747628332        0.95175755626493
H            3.83198172937990       -0.05304737383804       -0.14053975205147
H            4.33238791422458       -1.59862041022284        0.50004347161767
H            1.77689158405115        0.30628299872048        2.33380946582056
H            2.15850709192448        1.35441281421336        4.44713140492387
H            4.71601373984543        2.50439146199612        1.84583651475976
H            7.59617937084566        1.10150640976662       -1.12477462631561
H            0.94629815003292       -2.87467783354032        0.92470041159256
H            2.29210796965498       -2.62907652055895        2.02640968159811
H            2.19039291617117       -3.25920417668362       -1.64487527031831
H            3.45063796088902       -5.00332848367840       -2.71717197093160
H            5.75498112935000      -10.41221748061046       -0.68379006336180
H           -5.09625210250029      -10.40998327398369        0.95471515442337
H           -1.98701042339868        4.53848105370956        0.26160640648510
H           -1.21551458277407        3.94853166613411       -1.20812627981625
H           -0.32759022238451        3.59869340576128        2.40480312028589
H            1.90291535185637        3.93909163980661        3.23020213749963
H            7.18269846337669        5.31035356842872       -2.02408280244665
H            2.90171091659993        2.79683700757867       -0.90799109498218
H           -3.58247764212679        2.64946740875464        1.06471502603831
H           -3.32421896858235        1.14364684560146        0.19639895129280
H           -5.74093978324074        2.14560480191404       -0.64634247805225
H           -6.72472927996400        3.11870598912880       -2.60976226349818
H           -5.08217459193637        7.30063532467293       -0.19209221659420
H            1.86927679637203        9.63729128954135        0.05377829574824
