43
 energy: -9.242148422033 gnorm: 0.000763161780 xtb: 6.5.0 (97a52f5)
N            2.31654503634453       -0.24306379903775        0.92505243791431
C            3.39898297391893       -0.23260261464599        0.50094129261899
C            4.70308832659705       -0.22878382971023       -0.00838056386678
N            5.56337731958274        0.76142112984927        0.13452028983941
C            6.71030918345286        0.36081532562169       -0.48002623764035
C            7.96284077478399        0.99792940083343       -0.63165944508674
O            8.12944553912220        2.27052012450450       -0.11666090731603
C            9.44502374391287        2.75225987817252       -0.33678285575765
C            9.63277125749503        4.17545732448527        0.09190475515020
C            8.54069343331565        4.95328219327768        0.43038109212332
C            8.70228303896541        6.27030461256055        0.80642803887180
C            9.96450897324865        6.82420211576600        0.84480417613887
C           11.06081636388285        6.05905250747622        0.50656668010339
C           10.89598440258466        4.74233672420158        0.13052415691862
N            8.92902790058787        0.35492629534930       -1.26135178575396
C            8.67523609924274       -0.89089087222054       -1.73335696383831
N            9.72960959598052       -1.51780982405693       -2.38561319839609
N            7.53798404344745       -1.57195025151673       -1.65402708098909
C            6.56485170566653       -0.91982683573787       -1.01776940879679
N            5.26838266141074       -1.29163315366014       -0.72520573609045
C            4.68329192920603       -2.61076482136254       -0.98806692923573
C            5.17061193929808       -3.65292753277572       -0.03430825461213
C            5.22514326555309       -4.98689802535868       -0.40617016705113
C            5.66246858586109       -5.94562743976947        0.48387444028922
C            6.04536660903310       -5.58331007558203        1.75814505592659
C            5.98870235023141       -4.26041439281247        2.14202391729957
C            5.55127966612382       -3.30434927992320        1.25036291332897
H            9.66080676177571        2.64971842704890       -1.40635794141789
H           10.13094477936634        2.09368375776616        0.20803379999286
H            7.56098967455445        4.50797037939049        0.39638480408432
H            7.84321531375395        6.86585926227987        1.06875927143190
H           10.09354613394649        7.85332891211107        1.13741337247094
H           12.04808116559425        6.49072783669697        0.53479121960261
H           11.74962511948177        4.14383977120674       -0.13784562078132
H           10.54573364591539       -1.00426837368843       -2.65256604156867
H            9.57869301421043       -2.35228611571590       -2.91656680287657
H            4.93232113111415       -2.88984276592806       -2.01500188299346
H            3.59493263435218       -2.52959339193522       -0.93119595335460
H            4.92321796952190       -5.26897796834191       -1.40028108835688
H            5.70462303182436       -6.97965211975837        0.18250256508523
H            6.38773811515509       -6.33293879141807        2.45258402446964
H            6.28574170325140       -3.97308037252031        3.13747500501213
H            5.50905308732184       -2.26982333113427        1.54224155711917
