94
 energy: -21.214701607541 gnorm: 0.000695623781 xtb: 6.5.0 (97a52f5)
N            1.61720445267397        0.62155210313016       -0.21696953107484
C            2.77040662592177        0.47866324860253       -0.20708281821617
C            4.16259096504402        0.27574348769117       -0.19326671628803
N            4.60488257551935       -0.96784683972920       -0.09940417854537
C            5.93315406828816       -1.10086322910846       -0.09239582079028
C            6.48963287786791       -2.43704083572898       -0.00005758082376
C            5.63623728110907       -3.54139860534793        0.07969024430940
C            6.12625745116009       -4.81630412871424        0.14703263549055
C            7.50689150538867       -5.05289430129129        0.13475065360564
C            8.04936184142759       -6.42552807281877        0.18336931048040
C            7.37259131056736       -7.49036971180243       -0.41565344494251
C            7.89019396404263       -8.76184285140099       -0.39013351800894
C            9.10919451542223       -9.02696455155868        0.23158104235059
N            9.65969799156252      -10.34705214269635        0.23626771485671
C            9.40822355236802      -11.24111155417623       -0.85921321309453
C            9.38382686089627      -10.77432157321935       -2.17106704805132
C            9.14961671223909      -11.63563967669213       -3.21882942076722
C            8.93742575325433      -12.97863867068529       -2.97687832660500
C            8.96159927059920      -13.45771824647321       -1.68182437284364
C            9.19548047942038      -12.59847164578711       -0.63225854699258
C           10.49173595241785      -10.78321455409759        1.32252679094688
C           10.18616606290077      -10.44299078950007        2.63785913593529
C           10.98519056099292      -10.86535765554714        3.67608949391798
C           12.10286496348362      -11.63555313146353        3.42101864035442
C           12.41827025538337      -11.98311353595731        2.12222630883749
C           11.62068564652965      -11.56247302758165        1.08235708585734
C            9.78394040427471       -7.96799086135194        0.83637888659047
C            9.26582882471593       -6.69680965456100        0.81433899358396
C            8.35735199267536       -3.95875108842054        0.06312441043257
C            7.88333948443301       -2.64723176990446        0.00117837288982
C            8.77882287251592       -1.49963234134669       -0.07024103992133
C           10.16802870921902       -1.63492729496033       -0.04120606583561
C           11.02106288166261       -0.54257169983269       -0.10888656284092
C           12.48577910793927       -0.72508014144710       -0.06171784594203
C           13.09031177137305       -1.84697625817885       -0.63374741870067
C           14.45059871337938       -2.02411562750878       -0.57625120830645
C           15.26821304038984       -1.08792399266488        0.05439221777703
N           16.68423832867761       -1.27713907971249        0.12602637110637
C           17.38087701436440       -1.96951075315937       -0.92123455705619
C           17.02585761533038       -1.79073205984208       -2.25587165790773
C           17.70079267005958       -2.45193207513640       -3.25687967181559
C           18.74341764879657       -3.30197283128065       -2.94470613755463
C           19.10952587372745       -3.48772750446898       -1.62612697042456
C           18.43620110250622       -2.82782177066277       -0.62336533594882
C           17.42142529311641       -0.78484736548492        1.25626954366105
C           16.90588417406618       -0.89149469191051        2.54545250036825
C           17.61615247144038       -0.42156735515937        3.62677885607909
C           18.85372021742280        0.16266628478544        3.44158981583463
C           19.37968020322163        0.27345012928071        2.16947178661618
C           18.67192910943113       -0.19641114224005        1.08647457463814
C           14.66855407711012        0.03434687880076        0.62325417078595
C           13.30837993915127        0.21200057730181        0.56734336213653
C           10.45384327947857        0.73407303633025       -0.21144892235811
C            9.09615997642127        0.89384227225851       -0.23589729459688
C            8.23322828644779       -0.20346677234647       -0.16303240299031
C            6.79853439617972        0.00695849938642       -0.17799751040471
N            6.34509940431186        1.25894822665323       -0.27054225461320
C            5.02799180460423        1.38322891217936       -0.27827891321610
C            4.49322222218061        2.68097034423151       -0.37578946890246
N            4.08005508564691        3.76403731313586       -0.45735103672915
H            4.57457881016222       -3.36779730006437        0.08609799550117
H            5.44962574736936       -5.64936361917589        0.22403652364280
H            6.44218374890917       -7.30264419452538       -0.92229648849802
H            7.35474634829756       -9.57403490680464       -0.84930628784741
H            9.56295767631745       -9.72942520080845       -2.35439971845718
H            9.13371920206550      -11.26165388771400       -4.22937239376928
H            8.75435919574161      -13.65226790437754       -3.79783639183628
H            8.79667818778944      -14.50574010817767       -1.49263187525236
H            9.20878279987861      -12.96429741085724        0.37944555873683
H            9.30793885567402       -9.85239992000694        2.83139428212764
H           10.73728031050133      -10.59590184549679        4.68961866384499
H           12.72794937815892      -11.96550377888641        4.23444641832787
H           13.29046883960013      -12.58369869559208        1.92232512622015
H           11.86547623472585      -11.82327311236200        0.06768744658064
H           10.73012450007252       -8.15891220951651        1.31120957918494
H            9.79474235795572       -5.89694730398635        1.30233323971202
H            9.41327337109828       -4.14315534757899        0.02758659270164
H           10.60498854103683       -2.60884104979481        0.06325274947824
H           12.47809116271053       -2.57321307091173       -1.13921786028205
H           14.90173068143617       -2.89971238651237       -1.00872004830282
H           16.22146929266854       -1.11718963471212       -2.49409870027679
H           17.41651431127449       -2.30415419620283       -4.28578152422100
H           19.27151405926375       -3.81858649989662       -3.72920683524648
H           19.92337551110110       -4.15048846021970       -1.38193773479230
H           18.71284457171675       -2.97282415128603        0.40617367578508
H           15.94625880324471       -1.35779836861457        2.68418177093152
H           17.20682248027278       -0.51111959716055        4.61959584854393
H           19.40869228828570        0.53090746576166        4.28875143071282
H           20.34545742925001        0.72895349140605        2.02442962138222
H           19.07273372072022       -0.10725948926657        0.09204759637679
H           15.29166286079899        0.76754202440671        1.10433246812903
H           12.86225048655277        1.07444789492201        1.03085310761764
H           11.09851814139967        1.59236737125664       -0.28587868808741
H            8.66735860120422        1.87747755196880       -0.31232125502326
