74
 energy: -16.851994989067 gnorm: 0.000723662637 xtb: 6.5.0 (97a52f5)
N            1.34219956590815        0.25934822101974        0.45890679237623
C            2.49646980111852        0.19753483249124        0.33959587641555
C            3.89176952486349        0.09569099381017        0.19417191145231
N            4.44199656802896       -1.09890191022708        0.33620313313798
C            5.76799304784486       -1.13641225878574        0.18881082925252
C            6.43519098795316       -2.41848330585197        0.31132779500588
C            5.69757126348580       -3.57928089336142        0.56990708951651
C            6.30225830191243       -4.80421219929851        0.64200487895979
C            7.68102927843021       -4.93070834831598        0.44078292179603
N            8.32994185477701       -6.20421203108918        0.45755213392075
C            9.74193944870083       -6.28338742038741        0.71759216514507
C           10.32244796395160       -5.55066738885602        1.75014504255990
C           11.68047544149005       -5.59930811129794        1.96850061473609
C           12.48329365585997       -6.38440070375625        1.16497897581356
C           11.92218875508693       -7.12254642206363        0.14177668310773
C           10.56473880915638       -7.07416783707381       -0.08026132378022
C            7.62137629450155       -7.39650473612576        0.08623409695813
C            6.69016973865540       -7.38730748136471       -0.94921609381883
C            6.02983523246465       -8.53994253322609       -1.30968711766043
C            6.28952201184556       -9.72334816557217       -0.64696090628999
C            7.21537126689553       -9.75041236252306        0.37730327091088
C            7.87681486482204       -8.59912684600570        0.73987063049620
C            8.41793336599043       -3.78381907483644        0.20310768115591
C            7.83106019079930       -2.52226295940530        0.15278328539909
C            8.61788013551162       -1.32180264446016       -0.07445096317404
C           10.00848652377891       -1.35761188751688       -0.13254709749376
C           10.76605160960304       -0.22474878687408       -0.37278008357441
N           12.19218136709283       -0.31402665261549       -0.40310283152963
C           13.00933478447741        0.81486837436289       -0.05723860821854
C           12.65007064596344        1.67301648089173        0.97903014755317
C           13.44729829163550        2.74470897353051        1.31147433186117
C           14.61933026887930        2.97689740884527        0.61908006878870
C           14.99358498127755        2.13025899320205       -0.40571423824963
C           14.19817179952000        1.05790371265648       -0.74006974729489
C           12.82422018607523       -1.57939795221753       -0.66274034789035
C           12.37510721897837       -2.40771975160504       -1.68851966012446
C           12.95750430551665       -3.63570643599925       -1.90545669082523
C           14.00238893730838       -4.05720824925554       -1.10731736580872
C           14.46451869405880       -3.24430917645849       -0.09126886965826
C           13.88298804950533       -2.01644627690052        0.12903704541202
C           10.09982332102672        0.99022034284887       -0.56630135289987
C            8.73592172549479        1.05716213334388       -0.48533459429309
C            7.96608119496524       -0.08237418744051       -0.22604503979565
C            6.52494805220375        0.01844176934179       -0.09718482680716
N            5.96189391303749        1.21987489720823       -0.24076233382084
C            4.64759745743600        1.24823018520393       -0.09464430674081
C            3.99867542264887        2.48800310169963       -0.23438013279853
N            3.48084723588270        3.52101020881907       -0.35651916714378
H            4.63448119137212       -3.48971246947857        0.70744932542937
H            5.72333372635352       -5.68554748596774        0.85460135226109
H            9.69083205922171       -4.94744023062551        2.37852035253910
H           12.11804853190027       -5.02451012169708        2.76806940609148
H           13.54630776646530       -6.42219300010882        1.33726177515764
H           12.54844814721345       -7.73523349208879       -0.48560562520948
H           10.12320753115269       -7.63608331644235       -0.88442830820353
H            6.50576161172441       -6.46744431587661       -1.47578055818888
H            5.31111157649622       -8.51966758125560       -2.11240709131715
H            5.77208873429045      -10.62518060451816       -0.93030843931482
H            7.42054258356129      -10.67426718834601        0.89277115503621
H            8.59775978935787       -8.61243204850450        1.53837832112059
H            9.46910260503839       -3.89208323358547        0.02295532310672
H           10.52715772512233       -2.27924104769652        0.04255389904097
H           11.74598141525485        1.47679105209918        1.52814686731014
H           13.15795241983743        3.40202156604350        2.11491072222763
H           15.24213590298882        3.81677820172885        0.87982225629581
H           15.90965196000765        2.30915742084785       -0.94433414199490
H           14.48201769043970        0.39560504840454       -1.53902622658819
H           11.56632194628217       -2.07027718524796       -2.31277714051166
H           12.59817364479662       -4.26906149113234       -2.69974729377439
H           14.45760219344711       -5.01878468988196       -1.27830207834364
H           15.27960862629647       -3.57319213914628        0.53215020169513
H           14.23006003857475       -1.38372213934625        0.92692308660969
H           10.67608190904224        1.87270356284696       -0.78125499037833
H            8.22987531732824        1.99720129046429       -0.61716585214403
