93
 energy: -19.411013786471 gnorm: 0.000965190080 xtb: 6.5.0 (97a52f5)
C            1.96695457601751       -1.04103098838105        1.91789156633184
C            3.46497312400826       -1.28907569637496        1.65243492092440
C            4.18843245463860        0.07087626724551        1.65050526283789
C            4.01942469998212       -2.16983264652144        2.78801708324348
C            3.69752292934363       -1.99002665885169        0.30443430270969
C            2.65615824785480       -2.32904608198454       -0.55208224409502
C            2.89877142712759       -2.94636196181905       -1.75916329008363
C            4.19508953979786       -3.24983906650920       -2.15644142522070
C            4.45901664637409       -3.88794805109465       -3.45726997366469
N            5.71663865808486       -4.18564718623412       -3.74237943396735
C            5.89816650295457       -4.73474829210952       -4.93281425264828
C            7.27671370127764       -5.09229342415939       -5.30789068211384
C            7.54688667300250       -5.72510320512283       -6.51489713501011
C            8.83624814684964       -6.06126390316712       -6.86327409831213
C            9.90556186031034       -5.77753241223994       -6.02131383254579
C           11.35720265261167       -6.13401937468584       -6.37917291710554
C           11.45408376039882       -6.83243500519096       -7.74991677713837
C           12.19983053057682       -4.84560512905370       -6.43083785703613
C           11.92767114977904       -7.08434153937606       -5.30949196547072
C            9.62983921711909       -5.14458491443006       -4.81561981660993
C            8.34218519464439       -4.80840347792804       -4.46280686152336
N            4.94404110392568       -4.98146765819938       -5.81572585920934
C            3.72647649437086       -4.64429731678236       -5.42075218219153
C            2.62138751660819       -4.86997175937966       -6.36413159388052
C            2.86603884672349       -5.30457885706906       -7.66471721206121
C            1.83261863599765       -5.47451800122686       -8.55141934189584
C            0.51690135101038       -5.22663800364915       -8.17077560792746
N           -0.54482739025800       -5.36081995846013       -9.13376612807093
C           -1.54921338069196       -6.35044351690236       -9.15175042939100
C           -1.77078252398906       -7.44724682828226       -8.32045079586546
C           -2.84763374499506       -8.26052484719733       -8.57604741667107
C           -3.71054868808268       -8.00245674929359       -9.64665274188870
C           -3.50508739318306       -6.92793734760996      -10.47672454803906
C           -2.41341568194582       -6.09487755602100      -10.22992302637671
C           -1.92893308638543       -4.91681560620615      -10.88928667828612
C           -2.39820778457182       -4.18636805001282      -12.00857335570693
O           -3.48421850149949       -4.38456840571713      -12.83830128076201
C           -3.46386121398940       -3.34699622939612      -13.75918576713025
C           -4.33387423395463       -3.05175977862455      -14.81565366809344
C           -4.09812231535479       -1.94481202876860      -15.58843071082758
C           -3.00489387494348       -1.10658353562431      -15.34109768944893
C           -2.13469695713320       -1.37103806381493      -14.31571794368405
C           -2.36133403889523       -2.49687303354602      -13.51785035773130
C           -1.67467317633827       -3.03661418097914      -12.38726082257252
C           -0.52678835276106       -2.60924410796627      -11.68296320560864
C           -0.08798066085079       -3.32461718720265      -10.60459044342279
C           -0.78730987006669       -4.48272303830519      -10.20715696996299
C            0.25088923843951       -4.80044909498319       -6.85700248772417
C           -1.05432066007843       -4.51854485407750       -6.42695282102060
N           -2.12367646541626       -4.26882059898833       -6.05014781425839
C            1.30768855951321       -4.62628595524067       -5.98141359562206
N            3.42256772712658       -4.10414827671712       -4.25080384285232
C            5.23818447737596       -2.91828776522521       -1.30081647036235
C            4.99140155607103       -2.30002918990970       -0.09565882265703
H            1.82220519236139       -0.54356847948581        2.87624974196417
H            1.41340108607771       -1.97870900485879        1.94678999550219
H            1.53230232708362       -0.40406873116528        1.14852294255234
H            4.03412008807019        0.59555559562169        2.59262119037792
H            3.81479683105133        0.70407399066294        0.84671606757328
H            5.26111858820560       -0.05098134206063        1.50937996576955
H            3.84425187591028       -1.70888279092649        3.75936760198104
H            5.09195170460690       -2.32439044981712        2.68222613899618
H            3.53820567672317       -3.14708831148190        2.78644884682446
H            1.64076005452751       -2.10770740335263       -0.27635120930217
H            2.08506448214035       -3.19954355372496       -2.41581686990032
H            6.72741998751498       -5.95007481829318       -7.17464731951484
H            9.00933993894574       -6.55134288357321       -7.80450785566980
H           11.07952032035228       -6.18920611271976       -8.54522451898369
H           10.88603413325725       -7.76182277263223       -7.75768706286265
H           12.48902506833508       -7.07767955596117       -7.98572043816777
H           11.79577144564249       -4.15141576282301       -7.16665221574879
H           13.23110849089703       -5.06516233023539       -6.70457774661852
H           12.21211104332484       -4.34113471131319       -5.46606056300845
H           11.33048479819729       -7.99303228597805       -5.24465188481350
H           11.93369422280338       -6.61683016013211       -4.32622962761135
H           12.95153503027739       -7.36964063475422       -5.54818564338593
H           10.43818949677512       -4.91187810290847       -4.14472619997648
H            8.14318100248613       -4.31992381191096       -3.52518137904634
H            3.88133528234320       -5.49372095803569       -7.96562876583169
H            2.02520915816661       -5.79882884530552       -9.55914418430099
H           -1.10288125294972       -7.63713430141008       -7.49930429654863
H           -3.03211684624194       -9.11195238959463       -7.94186679255427
H           -4.54847779810597       -8.65707127513658       -9.82126469949000
H           -4.16009367628352       -6.71606537366178      -11.30321739782912
H           -5.17254544283918       -3.69822369179819      -15.00152297530208
H           -4.76624151777319       -1.71341968288553      -16.40167017677595
H           -2.84621821598677       -0.24312278056718      -15.96585565596778
H           -1.29142422071734       -0.73366600000576      -14.11661658342080
H           -0.01182253179842       -1.72130420670666      -12.00387996432144
H            0.78067061781934       -3.01974139407652      -10.04926261973627
H            1.11238371855098       -4.28275018780891       -4.98215092940046
H            6.24573108406825       -3.14802354999308       -1.59982633742575
H            5.81694155264496       -2.04890081018457        0.54706047991603
