31
 energy: -5.120874347767 gnorm: 0.000907555085 xtb: 6.5.0 (97a52f5)
N            1.16382728002441        0.41686490935512       -0.99398466749040
C            2.27753888912014        0.09427211826142       -0.92472859542022
C            3.62280573880859       -0.29897729018154       -0.84768836912544
N            4.63225858551746        0.42158178493118       -1.28533036410156
N            5.68238943689870       -0.33147162926682       -0.98225678734109
C            6.99161252621995        0.08743927092697       -1.28123623382653
C            8.07245636913494       -0.62814250034119       -1.05965039298587
C            9.34249631629022       -0.17358286961437       -1.31220269749192
F           16.70904202345373        0.19546019335594       -6.23212316596494
C           12.06209333838344        4.20582659590454        1.48059739348813
C           11.04928896184016        4.38258507527992        2.30561855780896
F           10.88405428507795        5.17579438677142        3.38885530677313
C            9.75533776540185        5.22944062156961        4.14676877875534
N            5.44726417802082       -1.49938629634252       -0.37434588095573
C            4.14366123410378       -1.50634697181012       -0.27701992180227
N            3.37315687314740       -2.54575528646754        0.32817233602830
C            2.07666820594005       -2.97355399798696       -0.25645987644591
C            2.03663986687162       -4.51280180791500       -0.20166314740670
C            3.44262161806969       -4.95361169867208        0.25424786904037
C            4.06121324377672       -3.71372534450917        0.91418440079419
H            6.27097558729774       -2.63364962849971       -4.81583464914099
H           12.97303125965672        4.71927248999082        1.57226758471880
H            4.91544328050183        0.98162578526675        3.34233831674139
H            2.01906498290913       -2.60426316606179       -1.28471067365964
H            1.26180284058165       -2.51095066802168        0.30885883341260
H            1.76459784069953       -4.94974265681920       -1.17031172158694
H            1.27904177731146       -4.85110047158463        0.51524463695275
H            4.04491903772169       -5.26318259771339       -0.60780597402657
H            3.40662746262317       -5.80940582844226        0.93961832487420
H            5.13805474492808       -3.63223947360286        0.73519133194769
H            3.90009445357601       -3.70333304652439        1.99655944245365
