31
 energy: -5.159625522413 gnorm: 0.000405877379 xtb: 6.5.0 (97a52f5)
N            0.37746776938541       -0.01227961534126        0.31988944583400
C            1.52399442451431       -0.15263836092713        0.20181057921580
C            2.92280226948640       -0.30423297804224        0.07731551937672
N            3.78949925228682        0.54740252413811        0.58500487017826
N            4.91482560175087       -0.02292709525448        0.23172882710811
C            6.17841983400537        0.52515446841810        0.69885509036148
C            7.32474583115447        0.10623356554183        0.11322062220692
C            8.58793416093288        0.47259743200396        0.49915111768246
C           15.71817024441231        3.05353512604487       -2.26624761054098
Cl          15.83171518384198        3.72703621497918       -0.81009242366038
C            7.14774181015543        2.01137942853283        2.34247456892478
C            6.14641262525285        1.40915973173534        1.74176429264910
N            5.88127505918674       -1.66222718881701       -1.85445279901765
C            4.85464436205702       -1.16121934205108       -0.46527529071228
N            3.64467557685364       -1.36655437056974       -0.55712712765140
C            2.99877648032477       -2.32614195120776       -1.08032417738621
C            3.36691665404904       -3.67245420652615       -0.93269922448987
C            2.54351748701625       -4.35261700377432        0.15923920695292
C            3.23817056724726       -5.49915122332166        0.80111371576533
H            9.37717995775929       -1.22046718257672       -4.71718094095731
H           16.56546398796961        2.83516575270323       -2.84125551620065
H           11.14438803922953        4.10732962504858        3.01815512692267
H            7.01168652041889        2.67696662142301        3.14247506492535
H            4.43416045834678       -3.71431085860034       -0.69409403685654
H            3.23183908118468       -4.15992926535319       -1.90594774761179
H            1.57350419265635       -4.66141359621115       -0.25138880771711
H            2.30474714208782       -3.59679535019189        0.91645226502483
H            3.91851138723364       -6.00161517592340        0.14301190549776
H            2.58040743181310       -6.21558509679979        1.25507801543139
H            5.61694135007959       -2.13549016721459        0.73774269048024
H            4.13188526292675       -1.54843045712488        2.29800278268740
