31
 energy: -5.145469290383 gnorm: 0.000966470484 xtb: 6.5.0 (97a52f5)
N            0.44914403030092        0.21133951388528        0.43557512230163
C            1.58063720383998       -0.00773486631057        0.29453425109970
C            2.96330561236700       -0.25286210442761        0.14143948905773
N            3.89554079610454        0.54622818806973        0.61819159253334
N            4.97248945167168       -0.10332344419024        0.25084136309710
C            6.28095156638406        0.35662716489363        0.68882921500504
C            7.38170689294748       -0.13646535502750        0.07378756454855
C            8.67607423573652        0.13837819985743        0.43160780190224
C           15.07180663596519        3.28860836164849       -1.75685496780160
F           15.31552418782375        3.99224680178920       -0.74814229102126
C            7.38716178296787        1.76436390713861        2.31550909142954
C            6.33359142157608        1.23454250659041        1.73618991953658
N            5.79539788230491       -1.77596521837911       -1.85233698367763
C            4.82154436887401       -1.24070758248159       -0.43391122640673
N            3.59899348309170       -1.36670749606859       -0.49714318887409
C            2.87823794149732       -2.28365985947018       -0.99656026328408
C            3.19865956073823       -3.64635577526763       -0.90470231436963
C            2.52220318273853       -4.29767186422193        0.29997831569619
C            3.20745706333160       -5.52991418775954        0.77014001023185
H            9.52585098575265       -1.32690789557202       -4.39881748238151
H           15.78418037073006        2.94693697177899       -2.45685903951029
H           11.08200585417172        4.50893188574564        2.42780847972524
H            7.31417689367026        2.43312918289767        3.12108378473320
H            4.28626671652457       -3.74339688796383       -0.83480515963934
H            2.89120040888768       -4.11947016451570       -1.84537343953492
H            1.47020821490487       -4.50083394271146        0.06159347346920
H            2.49299377352455       -3.56003250746256        1.11039080214190
H            3.71024368704179       -6.05774817110310       -0.01549882693204
H            2.57481823974164       -6.20733262615195        1.31130011383954
H            5.55123218081619       -2.28995998544893        0.72209044858228
H            4.35727537843997       -1.33662273932534        2.22865435580303
