31
 energy: -6.318541921271 gnorm: 0.000776712876 xtb: 6.5.0 (97a52f5)
N            1.59457615581541        0.81631554684728        0.23396620705502
C            2.72494188169275        0.55289686156057        0.19040489485939
C            4.09076900433638        0.22918774401916        0.13584395918069
N            5.05716801667753        1.11150605332604        0.01619420280013
N            6.14928151392151        0.35295548452602        0.02371731961395
C            7.47131305044155        0.92618340342453       -0.06314336500141
C            7.63820730330794        2.29994785572920       -0.13099806088796
C            8.90088138962234        2.84686957203012       -0.19777872756771
C           10.00997878690627        2.02373603530816       -0.19835352818775
C            9.85222695779033        0.65315287754544       -0.13302519775934
C            8.58903694709142        0.10750552447817       -0.06616728650001
N            5.97864248027305       -0.97136064251929        0.13770624993085
C            4.67821437217682       -1.08002708545497        0.20813523858030
N            3.96717705885053       -2.31126258529456        0.33141499563510
C            2.64991137617095       -2.50748415057955       -0.32336827935646
C            2.47149075493661       -4.02063824803974       -0.52392443877826
C            3.88950781074273       -4.61630147996091       -0.43025733270946
C            4.71506138784791       -3.58928013945036        0.36286775864836
H            6.76584522909790        2.92902091339760       -0.12726631893924
H            9.02285086638202        3.91642442087266       -0.24804605787576
H           10.99797362046725        2.45101990959442       -0.24903064133498
H           10.71677541729547        0.00981737133601       -0.13242654767635
H            8.45071270038064       -0.95786995910368       -0.01273624774702
H            2.65541856863107       -1.97262524329896       -1.27768764935521
H            1.86522967814694       -2.06860310389066        0.30043010339057
H            1.98551699218309       -4.25397328838604       -1.47932368235076
H            1.83203152264994       -4.43588661658082        0.26374288436433
H            4.31148946972966       -4.75059314922110       -1.43311478242888
H            3.89315566279675       -5.60370467110411        0.04761741939340
H            5.71318805352773       -3.43584267519425       -0.05898997679358
H            4.84012597010665       -3.88673653591654        1.40845688779847
