34
 energy: -6.725485322608 gnorm: 0.000463175095 xtb: 6.5.0 (97a52f5)
N            1.64895996617173        0.65117926307758       -0.74968584356872
C            2.77055870355505        0.41900720999902       -0.55848508447342
C            4.12330188570026        0.12515877246412       -0.33042994374369
N            5.09995087516899        0.99297392191700       -0.45297782983154
N            6.17349918579572        0.27255979283009       -0.15447503466250
C            7.50269170511385        0.85158110176806       -0.15199679008608
C            7.82574823179433        1.80396987047459        0.80229049113781
C            9.08411455051592        2.35940906812146        0.83692481079109
C           10.03300481383199        1.96987467548248       -0.08493463570100
C            9.71733502222732        1.02687649434619       -1.04090314424095
C            8.45955696309792        0.46445260577257       -1.08723328792849
C            8.14198651088767       -0.57369073741605       -2.15696912696081
F            9.09498684073804       -0.52872351744724       -3.10376251983855
F            8.12337739894132       -1.79064246593198       -1.58825292459824
F            6.94662542234575       -0.29464562095103       -2.70286646545558
N            5.97472121911898       -0.99897858117898        0.20609697167118
C            4.68264240391142       -1.12925371469071        0.08058794913192
N            3.96694321934306       -2.33840255584663        0.32271998481719
C            2.76693408182353       -2.70002549150322       -0.46950919145063
C            2.56971433100394       -4.21424849330701       -0.29765716938569
C            3.94908936994234       -4.76170613114206        0.12343526033651
C            4.71402011906280       -3.55851741189472        0.70530220892269
H            7.07723131796120        2.09904206772397        1.51796718620491
H            9.32807076866584        3.09696138408005        1.58455511333916
H           11.02026530119790        2.40267779936377       -0.06002337851005
H           10.44839021819822        0.71870446135088       -1.77041122036354
H            2.94904117041153       -2.43138766128146       -1.51472114111294
H            1.90882555003038       -2.11989800801287       -0.11514731863228
H            2.19940810198936       -4.68706950374045       -1.21591713017125
H            1.82644194691292       -4.41362062704554        0.48336230638489
H            4.47927959921318       -5.16468354823636       -0.74778002923410
H            3.86396147689781       -5.58198360520789        0.84705027405350
H            5.73811649063014       -3.48504304910797        0.32353327392365
H            4.76578523780857       -3.59489776482688        1.79822337924100
