31
 energy: -6.236169313225 gnorm: 0.000884370682 xtb: 6.5.0 (97a52f5)
N            1.78924074432550        0.71495390666096       -0.85088322373020
C            2.89486930699600        0.46535641984523       -0.59699376128393
C            4.22815661094512        0.15139842665171       -0.28779671278827
N            5.22804428137938        1.00070494841330       -0.37432524717913
N            6.26600561939631        0.26648616711634        0.00594986278238
C            7.61686528440257        0.79542258473855       -0.00585354182005
C            7.99888151960681        1.79185144182122        0.87416944396398
C            9.29124191478962        2.27806795692777        0.85394282870706
C           10.20915043491473        1.77338240871547       -0.04724854845383
C            9.83603197875389        0.78180477364543       -0.93250541854218
C            8.54437606641097        0.29219997427218       -0.91556026607451
Cl           8.06358048757711       -0.93030522255374       -2.03305862778340
N            6.03368452179418       -1.00571289218341        0.34452344970793
C            4.74418068814375       -1.11152593384181        0.15973124385224
N            3.98924260132877       -2.30829239261067        0.34986035007030
C            2.84842853760999       -2.64213084364351       -0.53627233971514
C            2.62793825292858       -4.15794896312598       -0.42216426391548
C            3.96312421566259       -4.72764652507250        0.09594158521363
C            4.68424554064438       -3.54705612604587        0.77077925482725
H            7.27733541986477        2.17803078849509        1.57279881602678
H            9.58418146237456        3.05261949170613        1.54353186133297
H           11.21689107212449        2.15479627134991       -0.06095200370237
H           10.53872592010831        0.38166836644245       -1.64368335733084
H            3.10605521952940       -2.34650953589174       -1.55766956237853
H            1.97040663573108       -2.06447160994667       -0.23157280246537
H            2.33162193879608       -4.60283249544263       -1.38012284173125
H            1.82058597594306       -4.37248855034336        0.28766254727803
H            4.56075803796135       -5.11218952359962       -0.73891430614372
H            3.81364463685381       -5.56615788214572        0.78721039589395
H            5.73924423076663       -3.48194347509903        0.48651501422264
H            4.63843084233044       -3.60950195525539        1.86237017116109
