26
 energy: -5.876107051198 gnorm: 0.000603196870 xtb: 6.5.0 (97a52f5)
N            1.38411186820291        0.54055396796530        0.11931566424479
C            2.51490941266645        0.27609255505720        0.09374279967275
C            3.87247554449528       -0.05522006375219        0.06040919248639
N            4.88585303214735        0.85293538955177        0.05630014480075
N            5.99824885593691        0.25078692137331        0.03923781123820
N            5.79213980963283       -1.08325042016255        0.02024493444536
C            6.85030477016274       -2.05328323800753       -0.02016884170134
C            7.80307927980875       -2.08998271370397        0.96059478580060
C            8.81963266977390       -3.03193244963702        0.90102549589734
N            8.96736521354272       -3.92411414610072       -0.04328759693749
C            8.04532065542540       -3.90454556836524       -1.04296093582227
C            8.16097985164090       -4.82635865147778       -2.09812821967163
C            7.26564974900789       -4.83234689960644       -3.13531093071422
Cl           7.44744132746332       -5.97898770709326       -4.41002098765509
C            6.21023702428868       -3.91457803143633       -3.16739863824633
C            6.06540070682248       -3.00934859796207       -2.16007585322482
C            6.96734183698329       -2.98450457559275       -1.07671660207083
C            4.43195348167147       -1.32168092875069        0.04389908260286
N            3.78952140564756       -2.54298206044931        0.07391276921100
H            7.74817311078147       -1.38643098710858        1.77325588786170
H            9.56039369992652       -3.05115955805648        1.68701953181372
H            8.96945787947533       -5.53475484670884       -2.09044970209915
H            5.52164090638543       -3.93928722196891       -3.99521880465293
H            5.25761376955067       -2.29956495179465       -2.17761499775062
H            4.28856148837829       -3.37166542805424        0.34272148054627
H            2.81759265018130       -2.59813978815936        0.31745252992369
