9
 energy: -1.559178118620 gnorm: 0.000912770947 xtb: 6.5.0 (97a52f5)
N            1.04368686871826        0.06916412843095       -0.06113392217899
C            2.32864129656728        0.07262894973883       -0.06434431703623
N            3.02545518175025        0.93571476633263       -0.88852690199453
N            3.03967465572069       -0.78402852871701        0.75392789186597
H            0.56578597797359        0.68416069428679       -0.64891681454448
H            2.58293724127216        1.58368404366166       -1.50862053862640
H            4.02428027509997        0.96601417193360       -0.91959759781593
H            2.57556023403248       -1.42525001822107        1.36345976486799
H            4.03946826886532       -0.82091820744636        0.79009243546261
