49
 energy: -10.909638970684 gnorm: 0.000819885434 xtb: 6.5.0 (97a52f5)
N            0.68515085293337        0.33476934641208       -0.15216733121403
C            1.96866565925897        0.21289294603299       -0.07304809109898
O            2.51084792279536       -1.05978907779891       -0.01963493909463
C            3.88535422721189       -1.18791119911967        0.01928425604064
C            4.41836362048901       -2.47774503015609        0.04582091749793
C            5.77543572129983       -2.68832778988826        0.09409773371288
C            6.63816325326715       -1.61673352457139        0.10541350548070
C            6.15800011491119       -0.31148848298387        0.06278501066482
C            7.04456364372302        0.83331116832122        0.07917498538006
C            8.43962985411707        1.04332384948869        0.11457344034170
C            9.49008269903913        0.01339027835108        0.04654265467177
C           10.47032908595637       -0.04593317077368        1.03367998150843
C           11.46591513133406       -0.99516866522414        0.97682731442206
C           11.50672905096781       -1.89373385270995       -0.07094455869760
C           10.55359236345452       -1.83464745125050       -1.06851306051016
C            9.55701765829124       -0.88632398749095       -1.01622404519130
O            8.71549541666248        2.39346946488496        0.22613742907215
C            7.50316311742244        3.05889697650422        0.24348812370210
C            7.13610235639888        4.40362814498087        0.35480929151366
C            5.79821284947521        4.72668833735808        0.37070021981628
C            4.79845776474371        3.75698892252654        0.27373006248684
C            5.09945158331353        2.40295833057587        0.14475185593899
C            4.18803997718775        1.26296384570808        0.03927095617487
C            2.80262760750842        1.39435874885181       -0.04679736797707
C            2.11498085529425        2.70578184006495       -0.14650632383951
C            2.08632234390997        3.41115453290688       -1.35366865733852
C            1.45902315735076        4.63237647667713       -1.43846935147381
C            0.84213095803251        5.17377833851350       -0.32764226666223
C            0.84610789422593        4.48513861649235        0.86955617005710
C            1.46922304235110        3.26240712275628        0.96115178690254
C            4.75462101089393       -0.07137878040672        0.03706135129177
C            6.47476035887675        2.10571132047232        0.14390749700508
H            0.15016313664838       -0.48036434424844       -0.17075291681891
H            3.73626161354256       -3.30913743083945        0.03286941267701
H            6.16402435432631       -3.69314161951301        0.12316578715952
H            7.69715424416086       -1.78568811754359        0.15990796596665
H           10.43467580531819        0.66272227850964        1.84317057180476
H           12.21453555325357       -1.03659204518094        1.75108789231531
H           12.28607172760532       -2.63678262580500       -0.11347925661744
H           10.59178424039102       -2.53041487022466       -1.89058341567936
H            8.82205138594334       -0.82466107318475       -1.80032341556705
H            7.90023277405208        5.15558245312127        0.43331006852138
H            5.51250114328700        5.76168460870103        0.46332602311559
H            3.77510200488101        4.07248782731688        0.31469905867998
H            2.56855426931779        2.98441893348995       -2.21607528917618
H            1.44936768267826        5.16807255032403       -2.37351235734190
H            0.35325556453139        6.13171084314465       -0.39626644758837
H            0.35884969949861        4.90624149781219        1.73369582652700
H            1.47481364786736        2.72095353860775        1.89131194143682
