30
 energy: -6.436273932919 gnorm: 0.000669929625 xtb: 6.5.0 (97a52f5)
N           -3.25595951820397        0.65834238388304       -0.40180644344136
C           -2.07216401768070        0.18732808518217       -0.23970473217069
O           -1.00326121078300        1.07436590883684       -0.26673599302171
C            0.27673394955952        0.58396761379503       -0.09700463506668
C            1.36221467496238        1.46540751821083       -0.12634047708897
C            2.64430680516106        1.00802677452120        0.03502038450012
C            2.88511059645942       -0.34432822641725        0.23087672416498
C            1.83997726989237       -1.23257316148833        0.26538180952589
C            0.52313373393685       -0.78990677632971        0.10492602138433
C           -0.58277093941847       -1.67913848305463        0.13429013217660
C           -1.85759392446588       -1.23926694443696       -0.02784387745114
C           -2.98362125959220       -2.18831181349916       -0.00402718010469
C           -2.92688286915614       -3.35768543803495        0.75945627356695
C           -3.96238874815129       -4.26096318942524        0.74603823496604
C           -5.08409497860277       -4.02867264066079       -0.02759644449875
N           -6.17623129180404       -4.99958898921846       -0.05192524010847
O           -6.11678566612924       -5.98039547599867        0.70490471532436
O           -7.12390007876554       -4.80993963960129       -0.82937177314157
C           -5.16281813492313       -2.87293755355292       -0.78119946934268
C           -4.13152371133868       -1.96612165009193       -0.76547599301575
H           -3.35305056870909        1.61938329474244       -0.53185941333190
H            1.16477905085240        2.51162962737450       -0.27934666721402
H            3.46957949484065        1.70076179145234        0.00906531878044
H            3.89582065384124       -0.69676607521135        0.35549741987217
H            2.02573356366936       -2.28183090009773        0.41695195409848
H           -0.39158599083506       -2.72871049465928        0.26014082635677
H           -2.06860442608826       -3.54297447222283        1.38124478830165
H           -3.91665620985320       -5.16110562900846        1.33542657903901
H           -6.04393731107805       -2.69815998816834       -1.37514120006295
H           -4.20194893759490       -1.06129545681923       -1.34130164299760
