69
 energy: -14.822822108735 gnorm: 0.000739004637 xtb: 6.5.0 (97a52f5)
N            1.06858638192733        0.39155743703065       -1.85623032103728
C            2.36263229316138        0.11256902372241       -1.47818778377080
O            2.88531731906512        0.68316478123192       -0.52467496925781
C            3.12012211815897       -0.88876421191542       -2.23031685620030
C            4.37852762848438       -1.18499335549176       -1.84141824649264
N            5.16032523530428       -2.12162678714543       -2.49267371682320
C            6.56484584431284       -2.28705760599111       -2.05358528199354
C            7.17735809017572       -3.65080956844584       -2.43517784405003
C            8.11444064810106       -3.32644066368041       -3.61829940644616
O            9.45212358412961       -3.74498219958413       -3.38451485014718
C            8.02517958474591       -1.77798958693365       -3.79283242878021
C            7.25920018014137       -1.33673028774215       -5.05635919023011
O            7.59500414339214       -2.09962525544350       -6.19648793098771
P            6.31825529494617       -2.92722557569898       -6.77838829385612
O            6.14592522846767       -4.18271303669474       -5.94949061457125
O            5.10390711897554       -2.02164904780490       -6.73434391189349
O            6.74292080820429       -3.31517606290013       -8.27216345212311
P            6.19235893017078       -2.90531673329819       -9.71436094666088
O            7.08691052160567       -1.81211158177298      -10.26501995254877
O            6.24721501073752       -4.12457125017782      -10.60917158530338
O            4.66712848065387       -2.39874468823723       -9.61583828702494
C            4.45828279672855       -1.10018651786983      -10.08704377078264
C            3.03655553369860       -0.64593559638191       -9.73250915087204
O            2.06995626340976       -1.56460888267459      -10.26629286525492
C            1.65386195599173       -2.48544650195345       -9.22997658459141
N            1.95976515017499       -3.88798741617504       -9.58922511798342
C            1.44177143991073       -4.52637443377901      -10.70503633394185
N            1.99140781346042       -5.69280499781043      -10.91652606870614
C            2.92931705325851       -5.84632821280756       -9.93686506697748
C            3.84163951200856       -6.89922667210576       -9.67844950014570
N            3.84259300782936       -8.01121250976866      -10.49658122207065
N            4.67747399953833       -6.78545577593677       -8.65527124218135
C            4.58877063647068       -5.65720993763209       -7.94896970680799
N            3.78914242101052       -4.62729738608178       -8.05235750325818
C            2.94680820776085       -4.72949493241214       -9.09013187718964
C            2.27043458905459       -2.02783359496224       -7.89403739132367
C            2.79862598725994       -0.61868537561328       -8.19637875231838
O            1.87710739606569        0.39948634110602       -7.83621189510636
O            7.40310351907954       -1.25628613024738       -2.60518768634310
C            4.69588889813416       -2.71626936879061       -3.67503446618689
C            3.47033178760861       -2.48240529885514       -4.13425519405467
C            2.51650570160055       -1.58305916414835       -3.41791143082706
H            0.50743525822082        1.02203057571159       -1.31870436142996
H            0.57574991022895       -0.11889652916707       -2.56804476268628
H            4.80117637371267       -0.66765522000325       -0.99997106042980
H            6.58506435862849       -2.15373144803673       -0.96202891005702
H            6.40656397257003       -4.38293001814429       -2.69211938370536
H            7.75776722233711       -4.07536787209689       -1.61150264678750
H            7.78766392863747       -3.82376471077819       -4.54379935550285
H            9.80012436776560       -3.30272633349287       -2.58538880212967
H            9.04941918536928       -1.37913051280106       -3.82656535377283
H            7.45818972216999       -0.27597821175648       -5.27939732653882
H            6.17656779868472       -1.40769028138515       -4.88517796507489
H            4.60863233046222       -1.10475030291958      -11.17814178300323
H            5.21109299086252       -0.43335907157902       -9.63737778645843
H            2.81947524028090        0.34497900859683      -10.15858327682404
H            0.55869135634358       -2.39900146796632       -9.18480219651241
H            0.67670888475206       -4.09973597965509      -11.33758935912004
H            3.35556573995892       -8.01387406737889      -11.37300374840195
H            4.59390156413712       -8.67197577572969      -10.45864265596308
H            5.31941895962540       -5.57453728639830       -7.15485369973501
H            3.09488058005758       -2.69113534687643       -7.62187035771196
H            1.54855457921165       -2.01973842224117       -7.07247467203341
H            3.73746479227018       -0.41418669666729       -7.65748038675532
H            1.04610698123659        0.27720781523977       -8.33544821129462
H            5.37517402918332       -3.32655544017200       -4.24045908394192
H            3.17004428182664       -2.92208663760995       -5.07189905533044
H            1.64957131589980       -2.16622833390823       -3.08436273287869
H            2.13528616064657       -0.82710281090199       -4.11541236893459
