42
 energy: -6.306964067993 gnorm: 0.000458036782 xtb: 6.5.0 (97a52f5)
N            6.38417194683820       -7.22672284425388        1.59619554038284
C            5.72264909736973       -6.16253711727735        1.06696909642877
O            4.71095422487512       -6.28891988122713        0.41089260882833
C            6.28517203849473       -4.78769998714596        1.29205710186421
C            5.26226595388133       -3.70125544117337        0.96719219087578
C            5.80411278040061       -2.27113739813129        1.09902823412581
N            4.86136974978457       -1.31499145741663        0.50440213196962
C            4.82657767128052       -1.05974497722623       -0.83466767044547
C            3.88923334438834       -0.27111240571104       -1.43584040577999
C            3.81230369747288       -0.00444839421516       -2.82131490527379
C            2.85265643776387        0.88087436770588       -3.28414523835499
C            2.70476892545033        1.18089213135732       -4.63276215735421
C            1.75276550700997        2.13889260252805       -5.17722500214543
O            1.69443894781191        2.20613176476521       -6.39775767963886
O            0.97408209263928        2.92015183087977       -4.37381806093345
N            3.47780875792126        0.51922809169188       -5.56276368717642
C            4.22983680680831       -0.70082071401577       -5.24122535500149
C            3.32865269550306       -1.90539097487397       -5.44652172501901
O            2.39914673798165       -2.03791372462021       -4.68564176414302
O            3.59716458264498       -2.76327928149613       -6.45869184472230
C            4.76168598795086       -0.65365931140283       -3.79190067138732
C            7.14180913821038       -2.11927121476400        0.39807437754625
O            7.31532068053255       -2.77221022363129       -0.60455652996148
O            8.04767098197590       -1.25172918826154        0.90401166496419
H            6.04639576874602       -8.15195884813319        1.44713123391330
H            7.23265209618060       -7.14566703884995        2.12028825468511
H            7.16420886661807       -4.65895092582789        0.64872232228228
H            6.62919821123056       -4.68762981128049        2.32661634318029
H            4.36656118502023       -3.82980041069948        1.58694331477126
H            4.92225388442858       -3.84998596603934       -0.06455690596776
H            5.93559008816178       -2.03003755675211        2.16411556413503
H            4.10492000743151       -1.02439905901875        1.12230265517724
H            5.61054597548910       -1.50912855445655       -1.42038833543532
H            3.15259794759972        0.18862598735922       -0.79982225016151
H            2.19624619426168        1.33249935232264       -2.56403705997501
H            1.13752883910536        2.81706502065952       -3.42277679888004
H            3.23188035688940        0.64026158615655       -6.55161176191759
H            5.08198892011232       -0.75466978335748       -5.93667798831426
H            4.37695454801748       -2.52884914251182       -6.98687564209461
H            5.71863115719792       -0.11800490783375       -3.75798238782106
H            4.95794591955824       -1.68269644486959       -3.46997283377761
H            7.73626124896986       -0.77184974894971        1.68792202655013
