25
 energy: -5.067523169996 gnorm: 0.000434025003 xtb: 6.5.0 (97a52f5)
N            1.20580941827177        0.56701229379703        0.09017495064605
C            2.56725015843972        0.55841245886776        0.21108232055377
O            3.12910351421235        0.66369182375073        1.28482351337257
C            3.35634293790456        0.41162192459423       -1.06599279907942
C            4.84042825869587        0.38078150766863       -0.85883149367632
C            5.50229269559508       -0.81635661852022       -0.88343251955772
C            6.88595621891966       -0.89120181365170       -0.69146307059073
C            7.61111117488688        0.23642458555011       -0.46741999899939
C            6.97748234173247        1.49697017412358       -0.41553533817882
C            7.70848834740795        2.68184176939309       -0.17115782223137
C            7.07958111854741        3.88686727556961       -0.10994856217073
C            5.69353195486122        3.96877354669163       -0.28385727703337
C            4.96012314194743        2.84727049007186       -0.52268267281268
C            5.57603942275647        1.57582067449585       -0.60399609327572
H            0.61895868255129        0.63804712948868        0.89627322599234
H            0.73362117174402        0.45276923999127       -0.78834898259826
H            3.09797310556774        1.22516694250261       -1.74922570278923
H            3.03950655505629       -0.50495793323658       -1.57183635462691
H            4.94312353783271       -1.72009559384305       -1.05485307216984
H            7.37667930218060       -1.85010843242171       -0.72293758343233
H            8.67581290315609        0.17977103747888       -0.32073561925614
H            8.77362409338144        2.61706379411544       -0.03110584264847
H            7.64741802514008        4.78319139651484        0.07822880386408
H            5.20603159897060        4.92796815618268       -0.22318406874191
H            3.89288032024116        2.92161417082337       -0.63152794055770
