33
 energy: -7.262409799097 gnorm: 0.000579827538 xtb: 6.5.0 (97a52f5)
N            0.86732632555060        0.27280874079767       -0.27162237457007
C            2.22416322579597        0.22003757765855       -0.11658710965765
N            2.78010053240826       -0.98235708070959        0.03407326876035
C            4.12283493414547       -1.09224192144568        0.19730392335982
N            4.70664189109556       -2.26871577418149        0.35576342386515
C            4.08896914708997       -3.49116812178448        0.28759044688483
C            4.85105583028804       -4.60597080567623        0.65070933612019
C            4.30964594435953       -5.85887092421779        0.59197331593795
C            3.00895093488955       -5.97761900859017        0.16277486154570
C            2.32470716576627       -4.83753960177349       -0.18268952500314
N            2.82111194221164       -3.61464294438746       -0.13511255628219
C            4.97597159990576        0.07514344902320        0.22566058442985
C            6.34795366114666       -0.01778611398503        0.40053482503354
C            7.14556520563736        1.11878796470340        0.41185136491020
C            6.59275355733175        2.36200463005120        0.24957174337601
C            5.20191886548597        2.50847060862717        0.06919139301812
C            4.58201288144777        3.76196783200303       -0.10367426467226
C            3.22541729231038        3.84597993209464       -0.27566824795025
C            2.43588989879416        2.70331911319100       -0.28251137548335
C            2.99529563169375        1.44258080012622       -0.11691088850113
C            4.39285550839038        1.34710837262992        0.05982603843655
H            0.32488648135871       -0.56999606955995       -0.25899047104741
H            0.30437400791902        1.09995563366523       -0.36566866978679
H            5.86500661343777       -4.45731736742881        0.97770628901127
H            4.88362370631236       -6.72685349279973        0.87200496837049
H            2.53783253737782       -6.94456859686030        0.09723257551804
H            1.30421268290850       -4.92247480749957       -0.52339225455914
H            6.78847108080217       -0.99094437334748        0.52609075244395
H            8.20994851741026        1.02011328435245        0.54818956770873
H            7.21479697360370        3.23995027859901        0.25724997016559
H            5.18752759986242        4.65146700391358       -0.09964732300347
H            2.76359603089671        4.81074976378636       -0.40755442085045
H            1.37522179236514        2.80047201902697       -0.42095916753032
