89
 energy: -17.497768996689 gnorm: 0.000861401416 xtb: 6.5.0 (97a52f5)
N            0.73799421595061        0.14663715774900        0.16972485604807
C            2.18491878262825        0.18109264721823        0.02403125208155
C            2.74432184145598       -1.09654429591424       -0.59163450241051
C            4.25939121265009       -1.05340337296946       -0.79478558505076
C            4.81732828331755       -2.33877710172993       -1.40698349421578
C            6.33491824098458       -2.30672843916796       -1.59416187488313
C            6.89056562428484       -3.60246208122010       -2.18689598340551
C            8.41231158773622       -3.59159780528716       -2.34115041843547
C            8.96370152132070       -4.90855322200116       -2.88872675496420
C           10.48844969481680       -4.92460657252194       -3.00544538044761
C           11.03043291078111       -6.26896568867771       -3.49115629671001
C           12.55607956468672       -6.31880553403078       -3.56035441380264
C           13.08426035860748       -7.68529227647776       -3.96569480083254
N           14.53813057442036       -7.74228740560298       -3.97265459147222
C           15.20310418353487       -7.70080028741285       -2.73891461485480
O           14.58996606783914       -7.58058032900132       -1.69059350574695
C           16.66388944154189       -7.81013203637157       -2.75002872450888
C           17.37202918295217       -7.78650069136807       -1.56822190592924
C           18.74680958924293       -7.90315931926017       -1.55694331669746
C           19.47777793206092       -8.05390472308814       -2.73282422679873
C           20.92479261760655       -8.18916932421342       -2.73042658848068
C           21.67205585847346       -8.14585856208399       -1.55602440789573
C           23.04380139479701       -8.29607008224114       -1.56417107453251
C           23.73381205906047       -8.50085978290571       -2.73970928745743
C           23.02149476579011       -8.54724296103561       -3.95688177762002
C           23.71351692952964       -8.76159871013156       -5.16783273054725
C           23.00501132371385       -8.79449581190133       -6.34982255162760
C           21.63553808405153       -8.62433098713318       -6.36898598374701
C           20.90761262561391       -8.41831374749323       -5.19967615403214
C           19.46372708024915       -8.25079912405690       -5.20513663584837
C           18.72154162915793       -8.25824931821407       -6.38371203501484
C           17.34829674778580       -8.12238567016536       -6.37690452524161
C           16.65178831688703       -7.97593283305318       -5.19684867359251
C           17.35986692427310       -7.95406703664995       -3.97274261646804
C           18.77394877064868       -8.08424183344643       -3.97042702294458
C           15.19133984105912       -7.85860555394851       -5.20833386631559
O           14.56638931250301       -7.87011216842345       -6.25651678867312
C           21.61137520923057       -8.38243199130592       -3.96257865924599
C           25.16483095811141       -8.96934454771248       -5.17106439901385
O           25.73510307903191       -9.19440455100285       -6.22456282640966
N           25.86460165812356       -8.91450249949817       -3.94097254686393
C           27.27763773757107       -9.12709620968458       -3.92597297104079
C           28.08436952695988       -8.70339378859309       -4.98132379687811
C           29.43947374943125       -8.91081001362537       -4.97428725113057
C           30.05721026544272       -9.55790222431350       -3.89877519153696
O           31.41785296835650       -9.78627174028054       -3.86028992750909
C           29.25108355871972       -9.98169083556975       -2.83786600677547
C           27.89729417742037       -9.77055559310628       -2.85546807027613
C           25.19100220674914       -8.65891513220488       -2.72178154612861
O           25.79077798914452       -8.56232946116857       -1.66500432976576
H            0.38671756584757        0.98082554019986        0.61598290564546
H            0.45683715100817       -0.64477763274454        0.72677587805471
H            2.66020796208131        0.36536938833054        0.99664716012175
H            2.45346736860216        1.03748189627567       -0.60691479384404
H            2.24633936008268       -1.28414462572776       -1.54949174934444
H            2.48033532484423       -1.95258148408548        0.03940509986839
H            4.75299170293624       -0.85934612614062        0.16464170852017
H            4.52225750078833       -0.19922062658967       -1.42956938709921
H            4.33141601498668       -2.52866334509791       -2.37110925097996
H            4.54416734258555       -3.19293343893566       -0.77643280632690
H            6.81861009584311       -2.10740565801600       -0.63077232677074
H            6.61078498478036       -1.45999701348281       -2.23336365994671
H            6.42256904189780       -3.79387380402814       -3.15952455243732
H            6.59378002989969       -4.44852901769517       -1.55613449932350
H            8.87684522576191       -3.37536264974211       -1.37193386310022
H            8.71313654026064       -2.76385384032688       -2.99389303402007
H            8.51630562549701       -5.11811393192627       -3.86742793739336
H            8.63934194968371       -5.73434554704797       -2.24449974259122
H           10.93230134168230       -4.68148134910078       -2.03298738638836
H           10.81830436846376       -4.12531096268057       -3.67916689291867
H           10.60820911863891       -6.50448710567260       -4.47498376197505
H           10.67170816156581       -7.06531164455474       -2.82849173878825
H           12.98034615707537       -6.04948874963179       -2.58615478550082
H           12.92861218477401       -5.55930062081677       -4.25697117807052
H           12.72141154672769       -7.95995364982150       -4.96133994695582
H           12.72200525262756       -8.45540765445235       -3.27744383014723
H           16.82706481215950       -7.67745522361846       -0.64612106988673
H           19.25380611232394       -7.88356131784628       -0.61028148952025
H           21.18042732220980       -7.98980763430838       -0.61395626770557
H           23.60112549093615       -8.25774039081539       -0.64373004160681
H           23.54549389000159       -8.96218356880373       -7.26582088917903
H           21.12883643893245       -8.66219385908893       -7.31522924388560
H           19.21924005728293       -8.37296656325537       -7.32857801395247
H           16.79496644389712       -8.13638505681016       -7.30035469908833
H           27.61555368661013       -8.22028826696422       -5.82044267083470
H           30.03997179628900       -8.58178747829318       -5.80313473279779
H           31.84047097487768       -9.44428100381915       -4.67134934665951
H           29.71967410351166      -10.47499940678261       -2.00507233491394
H           27.28854177573949      -10.08825310378372       -2.02738030264337
