78
 energy: -15.141464227960 gnorm: 0.000498528554 xtb: 6.5.0 (97a52f5)
N            0.59976972714272        0.05400891455501       -0.24381384861174
C            2.01125011848920        0.17172629022006       -0.57449833816497
C            2.67521169563655       -1.18148377379859       -0.80356943083052
C            4.14670417389557       -1.07005599999913       -1.20442444150321
C            4.81158372425627       -2.43015692892511       -1.41957737272814
C            6.28233149194148       -2.32346703484486       -1.82507211282974
C            6.94782717515914       -3.68669137347612       -2.01918006727374
C            8.42128432072699       -3.58643086734100       -2.41646608088346
C            9.09131326355767       -4.95249060132896       -2.56986120141535
C           10.57258030445446       -4.85849449673305       -2.93729156623477
C           11.25379408952081       -6.22468791138405       -3.01993642079048
C           12.74407513478181       -6.13398075589701       -3.34431899283808
C           13.43631577009771       -7.48677220972684       -3.35451885602208
N           14.86202506132127       -7.36861431461376       -3.61667100163785
C           15.33569524921765       -7.72623426175781       -4.88678304121848
O           14.57829757359408       -8.12317762527076       -5.75674298666152
C           16.77631858625035       -7.60802731073711       -5.13258276592490
C           17.30556990792478       -7.96357979117153       -6.35272211521916
C           18.66038226382189       -7.86084947696940       -6.60087148427891
C           19.54792062495700       -7.39461545256632       -5.63612596383243
C           20.97767322435612       -7.28989455698952       -5.88582837356864
C           21.54548834597207       -7.66268207290416       -7.10017915813985
C           22.90370718973782       -7.56143675700745       -7.32901597165269
C           23.75413356663159       -7.08298977713609       -6.35810568943579
C           23.22740683523956       -6.68972944591433       -5.10445800184499
C           24.08416708138125       -6.19468976831498       -4.09220793345571
C           23.55231767062033       -5.81953542510088       -2.87932791670919
C           22.19716230390797       -5.92061570786999       -2.63348392515491
C           21.31287881954747       -6.40235310752775       -3.59366553812680
C           19.88502299928443       -6.51944086786416       -3.33970433557996
C           19.32024973982231       -6.16662659453737       -2.11815489357986
C           17.96431838375234       -6.28383653429230       -1.88404838073737
C           17.11268713606321       -6.75583462577837       -2.85713458648690
C           17.63616732641374       -7.12574255066689       -4.11807231718065
C           19.02932915496801       -7.01262217985022       -4.36587814179618
C           15.67663829240760       -6.87455774417609       -2.58862162985177
O           15.20950197927973       -6.55193729766789       -1.50888626084075
C           21.83286970753349       -6.79362439858862       -4.86059664235341
C           25.52725828146973       -6.08624616917462       -4.33800118981732
O           26.28500867650467       -5.66571897920487       -3.48018646734675
N           25.98569329732197       -6.48529004148841       -5.58624493675894
C           25.19583282247493       -6.98086982489787       -6.61490417353988
O           25.67286601223721       -7.31764984530783       -7.68539357486133
H            0.18147044208741        0.95489322189519       -0.06548392186952
H            0.47510862774320       -0.51403041080091        0.57933790552778
H            2.54232527159836        0.71871868527377        0.21580936238814
H            2.10977899215686        0.78368801997376       -1.47974689633328
H            2.12131240793136       -1.72959075727209       -1.57390166481407
H            2.58403045773030       -1.79165351199939        0.10197600051386
H            4.69514588286613       -0.51045635095880       -0.43774747799819
H            4.23561215755486       -0.46868375961167       -2.11663464426506
H            4.26023649787504       -2.99239622702116       -2.18218885233493
H            4.72575746106571       -3.02873448030222       -0.50516927126483
H            6.83132928941934       -1.75145480123549       -1.06797262944174
H            6.36917967295054       -1.73608600837900       -2.74656118454379
H            6.40052382016064       -4.25930543236044       -2.77693918880655
H            6.85647004294998       -4.27244058443020       -1.09704692255231
H            8.96274217286465       -2.99492271860659       -1.66887568809280
H            8.51489182873751       -3.02155909708221       -3.35133251817197
H            8.55998521538549       -5.54217840704669       -3.32610620930356
H            8.98185541085712       -5.51854669903522       -1.63728076376876
H           11.09288143203749       -4.23534778660540       -2.20056153684893
H           10.68521997549566       -4.32956585231394       -3.89080864845398
H           10.74936073312252       -6.84540352092253       -3.76952316220863
H           11.11981335172250       -6.75630158196743       -2.07056051460310
H           13.24365021619945       -5.48661603631990       -2.61418241458971
H           12.88978331103908       -5.64209525643929       -4.31274075045773
H           12.99667534917768       -8.14290587964459       -4.11247185576135
H           13.31109076990498       -7.99000386267028       -2.39066104046410
H           16.63807916295046       -8.32779006393845       -7.11497018947758
H           19.02457515435573       -8.15125072112299       -7.56869028081758
H           20.92320631725881       -8.04388014782874       -7.88833094866715
H           23.32033444822771       -7.85724496121242       -8.27672088222301
H           24.21730433326017       -5.44390585674180       -2.12046202341102
H           21.83011409457991       -5.61520571503649       -1.67132893803335
H           19.94329969807151       -5.79344248907169       -1.32686894263530
H           17.54959512119315       -6.00549308623504       -0.93022549662910
H           26.97196177579131       -6.41256860893632       -5.75802968183574
