34
 energy: -6.854545368150 gnorm: 0.000459175544 xtb: 6.5.0 (97a52f5)
N            0.91919228677625        0.06370085811062       -0.08680608133827
C            2.37325133185204        0.06716505882965       -0.08411183307740
C            2.95447372875460        1.05461412308336       -1.08378346418255
N            4.42110760190830        1.09323840900702       -1.07235479708206
C            5.18292698349707        1.87263357060314       -1.95343521065480
C            6.22665829814564        1.24283733043476       -2.64602012263979
C            6.91835731611646        1.88878780086874       -3.63784779129937
C            6.58992207190814        3.18498674686829       -3.97158116922308
C            5.59720692992648        3.86606807899822       -3.28822993727125
C            4.90621515237396        3.23691677033300       -2.23556278509258
C            3.99712423546363        4.03925121455092       -1.39844546405111
O            3.61320747672470        3.66776277702607       -0.30447420422479
C            3.56978616665685        5.36207450689876       -1.89694637583055
C            2.55101099801736        6.04974746759308       -1.25356336391038
C            2.15363801102315        7.29245357144687       -1.69061469971903
C            2.77567966457184        7.87225267275570       -2.77972007739641
C            3.79241942696008        7.20653766276089       -3.42482185261879
C            4.20109294340693        5.95157020535315       -2.99776363304590
C            5.29590609996215        5.25356300287382       -3.68843758514268
O            5.92615828670910        5.80157112134818       -4.57297560290744
H            0.54454929246336       -0.60464897344868        0.56927544557188
H            0.56492227023938       -0.16509065405362       -1.00192244322225
H            2.75573640940563       -0.94145588479330       -0.28789159691990
H            2.72516232837515        0.32706267854505        0.92199623049986
H            2.57743988343737        2.05612302077653       -0.86491717760249
H            2.61750260645077        0.81806845248328       -2.09823922501148
H            4.77750571274297        0.16266144701151       -0.86460442534220
H            6.46019117319022        0.21914500362066       -2.41139020427551
H            7.70584262954213        1.37896343993230       -4.16816162615738
H            7.11168677014266        3.69445636128272       -4.76362584258695
H            2.08006760230185        5.59236718869143       -0.40025698943094
H            1.35956407668139        7.81397583321024       -1.18214325551750
H            2.46629166376384        8.84625475404642       -3.12148410024847
H            4.28919257050899        7.65045438295122       -4.27046873904809
