25
 energy: -4.756573765924 gnorm: 0.000718622828 xtb: 6.5.0 (97a52f5)
N            1.07377418792378        0.51744147951257       -0.04181628022581
C            2.50784202427811        0.66667464120124        0.15433637438350
C            3.04961244748576       -0.22866209094526        1.26284646954348
C            4.52656385906022       -0.09653309710623        1.43923549341517
C            5.49742323625424       -0.83702581084896        0.80655819946313
N            6.74050492944883       -0.38148104353861        1.17212371298352
C            6.58151030630344        0.67977023862265        2.05462777251783
C            7.50577460521671        1.49350727343714        2.72310080686255
C            7.04040834816006        2.47990349305238        3.54665919969800
C            5.65154142020246        2.69991698592054        3.74116323543538
O            5.19368300056428        3.70795430552222        4.58591946024396
C            4.73798363448452        1.89936078292491        3.08180190627096
C            5.19985291916751        0.88020832498279        2.23219969593274
H            0.72792922408865        1.15389006257272       -0.74476421335637
H            0.58108264798082        0.71275267947883        0.81558475523381
H            2.75762823042619        1.71399684114095        0.37071581670761
H            3.02139249743269        0.42836415167620       -0.78549073207086
H            2.79901705999362       -1.27311308692541        1.04900721796935
H            2.54775441635083        0.00437237933716        2.20781880527327
H            5.31425014298310       -1.64832950802569        0.12098084525531
H            7.63945781011866       -0.75553731480724        0.86910420102204
H            8.55911870058270        1.33236350586213        2.57885794528912
H            7.73755820995862        3.11191438430784        4.06679067443402
H            5.95213583606198        4.18576022954918        4.97588696274457
H            3.68649030547461        2.05973019309227        3.22357167497861
