47
 energy: -9.442673299274 gnorm: 0.000966027644 xtb: 6.5.0 (97a52f5)
N            1.64448947127294       -0.70059340721963        0.08017142820600
S            2.89349454168680        0.42009076573604       -0.19378734598293
O            4.07629595670261       -0.28531397777877       -0.78206604657923
O            2.34736240268191        1.62130868633734       -0.90096373216224
C            3.25672532659398        0.86092912666418        1.50449524472497
C            4.34917322635400        0.31161648520437        2.13700548593150
C            4.62738306565283        0.64750023621489        3.44350270878608
C            3.81233060063127        1.53774037436509        4.13281269822688
N            4.12691122835611        1.85824910482027        5.47760725873001
N            5.20291043515174        1.34221105994800        6.12044842696787
C            5.26210059260487        1.82384619896147        7.32709452701828
C            6.29614755945080        1.46135908684447        8.27226830706194
C            7.28192721782446        0.54429692137883        7.90394663173435
C            8.27491199468741        0.18067863016052        8.77830088980451
C            8.32366643102323        0.72340248164439       10.06549456548321
O            9.31060981211719        0.38300536653483       10.97390236702228
C            7.33678402894407        1.64112471207867       10.43478297928223
C            6.34420970972084        2.00309367923421        9.55963109940235
C            4.13256099933442        2.77825517997933        7.60992978620375
C            3.27955061240869        2.72603421694572        6.33499314551534
C            1.91966057667394        2.12575707600237        6.56217526438195
C            0.79096198112987        2.91991490411054        6.68097566502169
C           -0.44513537518309        2.34782712017055        6.90380155673360
C           -0.57660828444858        0.97690380336392        7.01837147791226
Cl          -2.15066023336522        0.25316155267234        7.30150461756945
C            0.54947064337219        0.18402916224502        6.90934010593374
C            1.78521749456245        0.75438416935675        6.68622471346452
C            2.71138245803207        2.08442197684765        3.47865178549690
C            2.44000209169725        1.74569551076949        2.17142961382285
H            1.92057247621585       -1.58440502519461       -0.28024249676514
H            0.83356151726595       -0.39476081568472       -0.40483867628381
H            4.97955057564884       -0.37695341371309        1.59897684740461
H            5.47678187958385        0.22699732438085        3.95183240081937
H            7.24785389697173        0.12364139388410        6.91413515680219
H            9.02574405160235       -0.52749087631959        8.47758880272445
H            9.93037678482826       -0.25912476450594       10.58057348649015
H            7.37524838898294        2.05799851333564       11.42542448926596
H            5.59419703914910        2.71234755920647        9.86269704375744
H            4.51511581835765        3.78432191779077        7.81390109827128
H            3.55548096585670        2.44955407386379        8.47976186574315
H            3.19510003477985        3.71261183532050        5.85943221815722
H            0.88580470012506        3.98894087281037        6.59912094375596
H           -1.32438008534450        2.96299759849876        6.99365395965206
H            0.44660302779744       -0.88393348273380        7.00076993985788
H            2.66302249862579        0.13844444937952        6.60022653860504
H            2.06707670359249        2.76631934867760        4.00342019194693
H            1.59232316029646        2.17057328740921        1.65952096408379
