47
 energy: -9.409075211100 gnorm: 0.000725988401 xtb: 6.5.0 (97a52f5)
N            1.40755333122055       -0.06561375771427       -0.28065622644345
S            3.02288027566848        0.21029261893193        0.17223261353907
O            3.84750869076614        0.48664700497290       -1.04719100758081
O            3.07292192351755        1.19092724830544        1.30306011291569
C            3.42293566150794       -1.42306181041778        0.79142241558129
C            3.99132704592533       -2.35235365263542       -0.04998344355931
C            4.29790010481857       -3.60921059958157        0.42226899943362
C            4.03599830634273       -3.95109505270935        1.74406881372723
N            4.35968506518666       -5.25652213305856        2.19387227005201
N            4.93296810040680       -6.18619732350846        1.39119907440441
C            5.12632501653325       -7.28274542066907        2.06334308891382
C            5.71492689995696       -8.47172275508939        1.48507329432799
C            6.09622218236175       -8.47514966953153        0.14220717246234
C            6.65505202790782       -9.58780218537356       -0.43379760608599
C            6.85701226337081      -10.75115328088111        0.31380729096262
O            7.41586555129217      -11.89298948103128       -0.23419257589956
C            6.47649214668295      -10.74819843037489        1.65816386812913
C            5.91799118852631       -9.63494272987372        2.23303938679917
C            4.65748463072668       -7.16152343194867        3.48869707986098
C            4.02889856614262       -5.76272988724019        3.55084945676208
C            2.54341125588865       -5.79679795021507        3.78583291991199
C            2.00376476241211       -5.55339885392654        5.03549883808578
C            0.64039076731097       -5.60241274598972        5.23278573855372
C           -0.25280185272643       -5.90171029447896        4.19352141428355
F           -1.69244499069188       -5.94869718026695        4.40312724943287
C            0.32495968267545       -6.15360579549077        2.94103625140803
C            1.68769553862232       -6.10475916019636        2.74651882074172
C            3.46013275642627       -2.99963947438536        2.58224199556769
C            3.15907172952306       -1.74349573196997        2.10412226086595
H            1.31664504849986        0.10461910180364       -1.25547081233574
H            0.82781988597622        0.57347476076967        0.21091966781128
H            4.19595579656329       -2.08331933991253       -1.07305363664429
H            4.74305100467887       -4.34587899115825       -0.22230843440732
H            5.94216122661183       -7.58172479686025       -0.43712685126011
H            6.94263350572187       -9.57249396715292       -1.46940965373164
H            7.62575004026893      -11.74992974551159       -1.17573990164013
H            6.63261606539733      -11.64359253065718        2.23286181916488
H            5.63286880404512       -9.65213048477593        3.27011469222915
H            5.49596604536840       -7.27269719822741        4.18436482110716
H            3.91694509442849       -7.93287448035258        3.72040766800126
H            4.52528745928116       -5.12420342483841        4.29397248966586
H            2.66086819409242       -5.32603272044495        5.85715685066734
H            0.23469108402034       -5.40820861725671        6.21064264863960
H           -0.32590486501879       -6.39038829196104        2.11719160476569
H            2.10661078563453       -6.30130473200435        1.77523160634538
H            3.24330267034446       -3.25444302784627        3.60375685115017
H            2.71877352578997       -1.00180959725809        2.74983900332934
