49
 energy: -9.966710273719 gnorm: 0.000971648752 xtb: 6.5.0 (97a52f5)
N            1.88077600860849       -0.83473458680239        0.12249302006544
S            3.02413786009075        0.32259591482303       -0.37158271703547
O            4.28899503860939       -0.36757374143852       -0.77590177471134
O            2.38721643893295        1.28639056798769       -1.32261356291840
C            3.28598358441475        1.14564104625407        1.19853465372944
C            4.35257117345747        0.78736571623300        1.99130546412357
C            4.55071529958498        1.41497858720008        3.20093723498303
C            3.68083315648974        2.41012971762806        3.63122608108402
N            3.91528216551676        3.03477569240458        4.88228119876338
N            4.95611660444617        2.69960447114776        5.68171985833896
C            4.94278109508279        3.44140873769994        6.74944644825513
C            5.91862557045072        3.31559119338436        7.81036364228046
C            6.93945303384621        2.36955238473420        7.70528264953446
C            7.87969981175962        2.22764520253804        8.69393801751777
C            7.83769048916188        3.03151749904714        9.83599949248838
O            8.76609720423569        2.91994318122003       10.85510253009467
C            6.81620635172107        3.97835502012100        9.94218667102753
C            5.87668080644332        4.11909155512425        8.95307289275718
C            3.79198099605306        4.41145603751791        6.74800321498458
C            3.01483047597116        4.05760418733061        5.47275573110433
C            1.64660151102131        3.50080868585552        5.75563142714788
C            0.51211223679449        4.29046593382712        5.65081344645323
C           -0.73057793061075        3.76483858389267        5.92772458699055
C           -0.85873961342099        2.44669673356201        6.31875099540401
N           -2.18203441386977        1.88821711400697        6.60695212018177
O           -3.17176670022050        2.62689786499796        6.51182189037030
O           -2.26478459382886        0.69676531577297        6.93559581770207
C            0.26792964629613        1.65782947921040        6.43542769749083
C            1.50956233745625        2.18340861231950        6.15892924174775
C            2.60747652048030        2.76163962737092        2.81681535180909
C            2.41696496577138        2.13157400614432        1.60720982987656
H            2.25600003795666       -1.74289198514971       -0.01671184107957
H            1.05341967572318       -0.73646466711801       -0.41881976874040
H            5.02645140480553        0.01735643827567        1.65327163704632
H            5.37882959142196        1.14599939285475        3.83227602853762
H            6.97597042934717        1.74945476858874        6.82664088099204
H            8.65908816245150        1.49401626135752        8.59544087817701
H            9.41562556660862        2.22214422702162       10.65526460615509
H            6.78531461573645        4.59570583701694       10.82229357031492
H            5.09791223200018        4.85433003644773        9.05430540241213
H            4.15439778036989        5.44510953620115        6.74147855385398
H            3.16712582808690        4.27309548161314        7.63555205443444
H            2.95354996716938        4.90953750872257        4.78190797817562
H            0.61013997466734        5.32024948982708        5.35298665038433
H           -1.61693296411428        4.37066484902731        5.84478003635473
H            0.15689870626249        0.63209188798027        6.74359806214454
H            2.39185591136665        1.57399646733423        6.24691104004221
H            1.92131888864001        3.52289279491964        3.14124956678177
H            1.59189706075877        2.40521133394936        0.97021151237795
