47
 energy: -9.491765643420 gnorm: 0.000673726510 xtb: 6.5.0 (97a52f5)
N            1.58929611082277       -0.85231366352745        0.14411651224931
S            2.86046504466969        0.27494615925888        0.05468331030840
O            3.95581172507772       -0.27578971284440       -0.80757859837612
O            2.31195811016050        1.63327893918245       -0.26170499225458
C            3.38501233842214        0.24545382907778        1.76821067124040
C            4.47974322536207       -0.50310388891050        2.13761844119018
C            4.88249238325523       -0.52800287695437        3.45448913510744
C            4.19076496902580        0.19627068779985        4.41859860987772
N            4.63141553935117        0.14721392584155        5.76564452770827
N            5.71357090914206       -0.56836371010287        6.15969555315425
C            5.90800056957712       -0.39781695808091        7.43439964376772
C            6.98158968508030       -1.03699918540035        8.16490386400546
C            7.87210361686099       -1.87957587280047        7.49707546799635
C            8.89738007746234       -2.50037738033032        8.16482147971122
C            9.07595898066357       -2.30369873094752        9.53706414232546
O           10.09809890775496       -2.91540516751744       10.24291545994102
C            8.18560149646527       -1.45977968673042       10.20601655284978
C            7.16086205233423       -0.83958428515454        9.53716751782071
C            4.88018696963479        0.51683562615482        8.04554960434697
C            3.93162279312429        0.83397330941687        6.88170613705884
C            2.54365480797823        0.29245587972975        7.09013336731269
C            1.50803947061264        1.11125981758356        7.51138372661391
C            0.24474911567606        0.59412932735975        7.71015358071242
C            0.00462788248772       -0.74690538913904        7.49553672967086
C            1.02996190490201       -1.57228322184682        7.08506135494623
C            2.29158004183917       -1.05317059216848        6.88734361028485
C            3.08476419981293        0.94740475188600        4.02854155818438
C            2.68927455904167        0.96992138177341        2.70941001194785
H            1.79337935921794       -1.60254712140257       -0.47484422142490
H            0.75601232897812       -0.40578098429665       -0.16151880342207
H            5.01434890467338       -1.06191788022117        1.38750256164667
H            5.73606512087988       -1.10713361889419        3.75862247516029
H            7.73807543908462       -2.03475541186538        6.44074051417925
H            9.57329647595573       -3.14695996604493        7.63497891368147
H           10.63636894145779       -3.47007464256759        9.64743099759722
H            8.32353195635168       -1.30837699747533       11.26171007500807
H            6.48585608914680       -0.19328066366981       10.07007104194056
H            5.35379570160291        1.41562902315397        8.45513676312775
H            4.34632955304870        0.01294478636235        8.85708205006238
H            3.89966023193563        1.90988195432287        6.66344248713910
H            1.69888101834917        2.15650855492758        7.68385497067652
H           -0.55530303470476        1.23895642321329        8.03468014574293
H           -0.98282419412522       -1.14981917676666        7.65057940397971
H            0.84613010735358       -2.62091073187465        6.91869423818335
H            3.09887363324637       -1.68746732278592        6.56583702928279
H            2.53386412892384        1.50272506159112        4.76585259147116
H            1.83739075202672        1.55364540168565        2.40212978627051
