24
 energy: -4.382414769027 gnorm: 0.000677803372 xtb: 6.5.0 (97a52f5)
N            1.07908896475578        0.31009890762484        0.03658930507085
C            2.53238794524847        0.26012963310453        0.01777717834674
C            3.13054015421135        0.98814550258640       -1.18901047923697
C            2.67631879242137        0.43020754743872       -2.50224580886216
C            1.72861721571253        1.09247773175930       -3.26914210694282
C            1.28382655878692        0.56194603111856       -4.45703602187613
C            1.77675183600554       -0.65892056171130       -4.92024769235049
O            1.35443267919620       -1.22441560441924       -6.10979601465799
C            2.72823560290665       -1.32112554355810       -4.14394425149792
C            3.16651682528753       -0.78487971382181       -2.95671918321305
C            3.05860270430969        0.84746610609837        1.31636292040460
O            3.07230216717934        2.05414532686789        1.42477912791576
O            3.46213854302406       -0.01961265713074        2.28052978919558
H            0.70142503070624        0.01896942184572       -0.85168025216181
H            0.78702743638641        1.25852409270488        0.20557135903587
H            2.82521898825542       -0.79835662450974       -0.03476479192001
H            4.22371845571248        0.95518032670259       -1.13689639065058
H            2.86522720864360        2.04687253609304       -1.12244135870880
H            1.33917075884739        2.03486192736373       -2.92414867227500
H            0.54827663125745        1.08699072333462       -5.03929768669757
H            0.69093948028392       -0.65641053611982       -6.54281479965727
H            3.10882950560747       -2.26304551479883       -4.49702602381190
H            3.89796943292689       -1.30977228329201       -2.36652167857836
H            3.34167708232729       -0.94886677527978        2.00917353312747
