48
 energy: -9.146881328696 gnorm: 0.000504580855 xtb: 6.5.0 (97a52f5)
N            1.16260209274699        0.35432714054683        0.07461183443594
C            2.53018729765048       -0.02683355559868       -0.22429352798698
C            3.25382561463706        1.07442973129838       -0.98193343786462
N            2.47873349696882        1.50365182925385       -2.14643581147992
N            1.69362906096610        0.69569529086000       -2.87789220571342
N            1.10471399959979        1.36422247954205       -3.78607423831060
C            1.48776084715559        2.67578714538642       -3.69038095527526
C            1.13811282937406        3.80058166634062       -4.44342859408522
C            1.68877124111829        5.03176345622780       -4.12454212724967
C            1.34382850263832        6.23188692261771       -4.91426051471496
C            2.30903100125432        7.19167941541899       -5.22288183287562
C            1.99143489122932        8.30241132588752       -5.96391951340795
C            0.69056509570342        8.51008718772351       -6.43217332720715
N            0.37456264716813        9.65558811437071       -7.20432872831928
C           -1.00422433967799       10.12090475142395       -7.41415978953655
C           -1.45281460180285        9.76507529036047       -8.82895996096248
O           -0.56347039522403       10.31227630843515       -9.79633433207384
C            0.77962337217611        9.87446086087225       -9.61588336001270
C            1.29935781024613       10.20048126488651       -8.21539850659837
C           -0.27636233911453        7.55039592834100       -6.11748222381192
C            0.04404171593244        6.43831511497488       -5.37927569945796
C            2.59121718787069        5.12729107407087       -3.03444774285398
C            2.94231856779274        4.03557443991408       -2.28851114253948
C            2.38584759146650        2.79981796293237       -2.62638155390095
C            3.25720615649809       -0.38867766518485        1.05864701685956
O            3.75455090581981        0.50644411959153        1.70687456554130
O            3.28104130006853       -1.70253454878903        1.40390119196650
H            0.73236318540178        0.70281993234558       -0.78008576071752
H            1.17667090332359        1.11199467618439        0.73776477215902
H            2.48856113367488       -0.91717375813545       -0.86818253141610
H            4.24388541847791        0.74801728978514       -1.30837246955508
H            3.39827252421943        1.92980039705335       -0.32038755750913
H            0.46386388920615        3.69634545397891       -5.27205178088840
H            3.31936228482431        7.04489808432805       -4.88276692433941
H            2.74533138115560        9.04316164614639       -6.16214284472753
H           -1.01394891821183       11.20712973504006       -7.28331372752215
H           -1.66749471484887        9.71134336046062       -6.64646148983506
H           -2.45910804335120       10.14386492197232       -9.05021030056315
H           -1.47182957663287        8.67888982562645       -8.97316046677584
H            1.38646849439689       10.35005801455356      -10.39734415467603
H            0.80234283659564        8.79394570593820       -9.79868461393380
H            1.36568861460118       11.28291660649266       -8.07362036954709
H            2.30359577810957        9.79494735007857       -8.06417682152679
H           -1.27947727814338        7.67046657068064       -6.48475763699851
H           -0.71684052374274        5.71575085861764       -5.14045158727377
H            2.99522969087059        6.09243290194342       -2.78418290620308
H            3.62782094927478        4.11316049556149       -1.46373443673408
H            2.78201042053639       -2.25014312035768        0.76821812602467
