38
 energy: -7.634988310892 gnorm: 0.000555834787 xtb: 6.5.0 (97a52f5)
N            1.78888406917406       -0.20738904307092        0.33367467599490
C            3.10819168074572        0.12812269440395       -0.16690229805535
C            3.18193421926304       -0.03518253590128       -1.67723555189037
N            2.65686557131499       -1.34015618723501       -2.08129272352536
N            2.85306961434806       -2.47062036339037       -1.38607253009637
N            2.15075867164389       -3.41079730425766       -1.87286422164460
C            1.43012230750129       -2.92546759298836       -2.92960253275075
C            0.49469322806865       -3.53629459816725       -3.76996158639837
C           -0.11950543678776       -2.78777233796502       -4.76019590246208
C           -1.12003838534584       -3.40759392202861       -5.65398967766158
C           -1.13791670623260       -3.10962659977398       -7.01937246004912
C           -2.07164968530569       -3.66542995622999       -7.87080635172076
C           -3.01455012006465       -4.53933993377751       -7.36306344498529
C           -3.01057793122163       -4.85813995114095       -5.97879481592243
C           -2.07073697003072       -4.29654740105282       -5.14203746416165
O           -4.04435341884829       -5.74651526000170       -5.70575404016158
C           -4.68120457294403       -5.96276461507105       -6.95863438292242
O           -4.04814508204470       -5.21885714495279       -7.99218491924664
C            0.20961934583963       -1.41597334263945       -4.89900424439632
C            1.11976807839134       -0.80424775866410       -4.08131284331757
C            1.73571639018947       -1.57142685085252       -3.08969630777198
C            3.47626705964919        1.53725123502008        0.26073547825816
O            3.18623752936650        2.45334322407358       -0.47675089630452
O            4.08891945773128        1.67616584365023        1.46347059847842
H            1.50907377177637       -1.11081440087447       -0.04636388869451
H            1.12934385758458        0.48219133347407        0.01242432167812
H            3.81791390598826       -0.57613076233000        0.29139632454084
H            4.20695863813940        0.06934411575391       -2.04029519578031
H            2.58970000973390        0.74849811271504       -2.15169677372933
H            0.27042554142691       -4.57904164497886       -3.64723649846317
H           -0.39308229372003       -2.44081857029646       -7.41425907587716
H           -2.08132250586109       -3.43284796171638       -8.92069750040193
H           -2.09175044539164       -4.53292280823906       -4.09492110801364
H           -5.73195692866366       -5.64922605102471       -6.88428459160755
H           -4.63093229504588       -7.03245172777782       -7.20570512403783
H           -0.29026487474175       -0.84158067908104       -5.65928764171079
H            1.36267745332419        0.23766290539122       -4.18974281076631
H            4.18450725104966        0.82355784100014        1.92608800557538
