41
 energy: -8.461900391757 gnorm: 0.000444242751 xtb: 6.5.0 (97a52f5)
N            2.40461406166215        0.19090332459669        1.08008109466164
C            3.32646782342799        0.11841665263351       -0.03794406152835
C            2.73148235046743       -0.67977273349917       -1.18781703596179
N            2.19540474404116       -1.95261699009772       -0.70267684173110
N            2.80251102897338       -2.70644300285244        0.22819705042330
N            2.01739567186818       -3.62199815721116        0.63421603839922
C            0.81880366195984       -3.49713523715800       -0.01684087894366
C           -0.37392557906509       -4.21545977109502        0.09632594901103
C           -1.46798263398377       -3.84214632074334       -0.66703790580828
C           -2.74858242042355       -4.57101703721363       -0.54239068167086
C           -3.52252706357845       -4.87524811736159       -1.68640405704524
C           -4.70765457435341       -5.53341908815513       -1.58160527483684
C           -5.20305040858285       -5.93416675934880       -0.31966669445107
C           -6.43215180416736       -6.61251720963661       -0.17255916616995
C           -6.87816792638724       -6.98167126258344        1.06114451805122
C           -6.12347090446331       -6.69393897930208        2.20439584605799
C           -4.93301120823110       -6.04114721875025        2.09902307066464
C           -4.44012439377191       -5.64266449057660        0.83556702867269
C           -3.21564890852411       -4.96039921980771        0.69214173579915
C           -1.35539251997209       -2.73907223774338       -1.54982862780958
C           -0.19512166597450       -2.02357904325525       -1.66827235537476
C            0.90063983694184       -2.41020234480841       -0.89292872287805
C            3.72236027147113        1.51825797682771       -0.47316178269568
O            3.02366640147839        2.08727756696915       -1.28385286404612
O            4.83330880332995        2.04806972000697        0.10216313446084
H            2.06909432819469       -0.74972345885530        1.28382669685446
H            1.60955617610138        0.74350267825249        0.80466385542523
H            4.22627398557772       -0.40592231061062        0.31528066348825
H            3.47246208043917       -0.87092618766532       -1.96732492903628
H            1.92368048711589       -0.10558597485838       -1.64354229390519
H           -0.43104896811907       -5.05001715329324        0.76905037212983
H           -3.15069539533865       -4.58757902996553       -2.65437700811814
H           -5.28341673862447       -5.75873838206736       -2.46243623974022
H           -7.01447328498093       -6.83361863260462       -1.05013530526208
H           -7.81849799264123       -7.49830156396246        1.16144669439302
H           -6.48978260551528       -6.99223322884253        3.17293808690346
H           -4.35398945873507       -5.81973149501278        2.97876338972024
H           -2.64589152565642       -4.72311332785090        1.57171609503385
H           -2.21797308243555       -2.45137059956647       -2.12490668237785
H           -0.11697083945636       -1.18456031078886       -2.33612156063632
H            5.21994018992957        1.44115895785755        0.76206964987915
