49
 energy: -9.715987761046 gnorm: 0.000701166112 xtb: 6.5.0 (97a52f5)
N           -2.06796667122686       -1.98816007619357        0.33035169938627
C           -1.53125836946075       -0.73855050566663        0.09905715259556
C           -2.39192279816577        0.36155033216366       -0.06997448015372
C           -3.84631624590066        0.18236698190953        0.03673085172116
N           -4.42814214897986       -0.48748761594926        1.02070410502161
N           -5.74087172261880       -0.37947523055748        0.82689656342973
C           -6.69740310684922       -1.15010426555136        1.64157484718739
C           -8.04111559284889       -0.42377880075835        1.85512659632216
C           -9.10003840563519       -1.49005330128948        1.52947815654977
O           -9.64664062372985       -2.08804030759933        2.69417641742281
C           -8.33539212595279       -2.53206921746366        0.66832723406851
C           -8.53177335069951       -2.31481240697046       -0.83245163156880
O           -9.88664900955508       -2.37216504207344       -1.22533524478005
O           -6.94772950292339       -2.44200526780992        1.05006455364967
C           -6.06677113151605        0.34401645621392       -0.32338859401215
N           -7.24136855460851        0.65849780635414       -0.87490559840220
C           -7.10183384516796        1.33239247428036       -1.98877912935785
N           -6.00726431952716        1.71863546818139       -2.64520870036561
C           -4.84169512037897        1.39928817803663       -2.09230511578761
N           -3.65755309214284        1.68148315657340       -2.74635330303735
C           -4.84573815023769        0.70846433003855       -0.85810216031156
C           -1.85486608912742        1.64050625264336       -0.28898282864013
C           -0.51015165162413        1.84440040977302       -0.36162610354409
C            0.39061568449509        0.76774617666341       -0.21961309806134
C            1.78543172429468        0.96101642826544       -0.30193231062505
C            2.64394544948941       -0.09100126531002       -0.17007160671515
C            2.14950546100628       -1.37809913820141        0.04534914461895
C            0.80398430852223       -1.59738772122904        0.13118203623220
C           -0.11553143583781       -0.53755355910795        0.00955787121239
H           -3.04939870132497       -2.07460306573570        0.55162327152404
H           -1.53891689788142       -2.74786496399915        0.72400657936222
H           -6.21039617816629       -1.35437633016094        2.60492826833474
H           -8.11575516903522        0.43597560627475        1.18469471106488
H           -8.15906827488620       -0.05643372006543        2.87846644620439
H           -9.94256380666220       -1.06705720015188        0.95993460100839
H           -8.93437555776999       -2.51705363134444        3.20598332243661
H           -8.67376591094058       -3.54029345050055        0.94605038086015
H           -7.95003048867172       -3.04049268807611       -1.41326360884713
H           -8.15935584029620       -1.32379938919259       -1.10802120320514
H          -10.27526490509393       -3.24047018894679       -1.00149555395741
H           -8.03175197846516        1.60953808202856       -2.46762212478310
H           -3.68213553406740        1.99363597258130       -3.69829657368276
H           -2.80417521595899        1.19675372139725       -2.52932454321910
H           -2.53253144081688        2.47119877692453       -0.38600932671808
H           -0.11973566790617        2.83315086771113       -0.52890083685725
H            2.16546033496794        1.95342838093352       -0.47266585114472
H            3.70759594969797        0.06908590816802       -0.23523793975771
H            2.83642663831530       -2.20296625369797        0.14143079948830
H            0.44002908187349       -2.59678716351466        0.28218185783400
