28
 energy: -5.575551186988 gnorm: 0.000875608552 xtb: 6.5.0 (97a52f5)
N            0.98332313709473        0.17960286244452       -0.09229354550936
C            2.35414646514378        0.17128474895184       -0.13942280501203
C            3.09174089089316        1.26583388808475       -0.59087849830930
C            4.46662099901024        1.23185829918738       -0.63164906322387
F            5.14002935715629        2.28564018091809       -1.13537778463150
C            5.15202121167467        0.08396372514122       -0.20771128484770
C            6.62959656687786        0.05780690606692       -0.20705558344994
O            7.26722314520353        1.07291771837439       -0.00538612492425
C            7.32425702695411       -1.22600069854876       -0.44983528629755
C            6.84860545953172       -2.13623094114305       -1.39329537673830
C            7.50234385073550       -3.31891276021647       -1.63387435992408
F            7.03416717887222       -4.19798766345114       -2.54539787018061
C            8.67596945452571       -3.62991135331195       -0.92663758143108
N            9.30920913270014       -4.81964637217704       -1.18040481396497
C            9.15576276167086       -2.71539860620703        0.01134526717241
C            8.49686283921036       -1.53278997943476        0.25555605707899
F            8.95235496367595       -0.70339322580146        1.21659588439698
C            4.41403894942775       -1.00985189909150        0.24418201104140
C            3.04234209028192       -0.97898932342766        0.28095234903605
F            2.33587635038194       -2.04257140263138        0.71888254578944
H            0.41143521064472        0.94546436196443       -0.40338316835603
H            0.46604092579562       -0.62236110064067        0.21797763084624
H            2.58660446801000        2.15474271561981       -0.92140659458854
H            5.96739540643883       -1.90887759054206       -1.96661805615301
H            8.94731717752203       -5.47138054043230       -1.85258182727220
H           10.13924442345952       -5.13009064257738       -0.70700219865634
H           10.05097208411514       -2.93239614458467        0.56456093918137
H            4.91639847299263       -1.89242516253407        0.59828913892959
