103
 energy: -21.139882413456 gnorm: 0.000280431718 xtb: 6.5.0 (97a52f5)
C            5.46374671379788       -5.22622737979767        2.63731042212444
C            6.81677442886224       -4.69001557569861        2.13376237952082
C            7.48300801195127       -3.89986369830287        3.27731066524005
C            7.73523954226424       -5.86901087580617        1.76114344577663
C            6.58229453048710       -3.81159163382314        0.89450572814755
C            6.01724459484605       -4.36582418079020       -0.24710302112493
C            5.77417470567798       -3.60467432314599       -1.36788855206367
C            6.08454494624214       -2.24849626584620       -1.39494234625121
C            5.82425734033566       -1.39088791015830       -2.55172371762911
N            6.07832646227650       -0.08968056440380       -2.53521185870733
C            5.69651651413334        0.39000986796384       -3.74071827556179
C            5.71405594499991        1.75149438448637       -4.20827027701884
C            6.18544377060186        2.78410966560958       -3.39366291785918
C            6.15606417223107        4.08107888058652       -3.82357092223989
C            5.64833502284144        4.40332022128957       -5.08991199151747
C            5.57044808583879        5.81253432814378       -5.53468288853950
C            5.83786202088680        6.16457591628378       -6.87940423839047
C            5.75265544338715        7.45501110440454       -7.30122101464930
C            5.39164280607469        8.48778014696890       -6.40413776487802
C            5.28652564102062        9.83741848428384       -6.80851264113451
C            4.93247378183887       10.80465865611261       -5.91533098252863
C            4.66780583997374       10.47566243140302       -4.57939321710882
C            4.76031623985756        9.18442194362566       -4.15514707386579
C            5.12422686945762        8.15517746825116       -5.05483955173810
C            5.22194968480397        6.80793052888238       -4.65010091870993
C            5.19546215239004        3.37640965412401       -5.90509018611781
C            5.21708508230478        2.03845907830083       -5.50007959965661
C            4.72753480498451        0.95097797128246       -6.35589258977927
C            4.27202095009525        1.18302648356224       -7.65671113651108
C            3.80673374408439        0.16328109428419       -8.47286421756923
C            3.33426329440369        0.44987064309789       -9.84557270302787
C            3.98604978317536        1.42031519432942      -10.64436187393957
C            3.56327929779527        1.69584610334290      -11.90735292334966
C            2.45381626086025        1.01690865116166      -12.46314433196487
C            1.98784683275204        1.27745754083831      -13.77112803889771
C            0.91542430774785        0.60225860224093      -14.27356141910588
C            0.25722259419315       -0.36228954626981      -13.49937784126711
C            0.67996875340223       -0.63837110975296      -12.23397683950393
C            1.78980905778315        0.04232550755113      -11.68052419023760
C            2.25353763557029       -0.21919513616035      -10.37432609509375
C            3.79607227837109       -1.14387484028449       -7.96739433840850
C            4.23677691160397       -1.40581613419432       -6.70123235568787
C            4.70979021961621       -0.38089970636967       -5.87397630916971
C            5.19392118274423       -0.63735872010523       -4.54471109978407
N            5.27315526758074       -1.79146914801201       -3.78412366825056
C            4.81513315247125       -3.10244832931130       -4.18111729136340
C            5.67771222457330       -3.99906460943911       -4.79294451971290
C            5.23729827474503       -5.25223453430733       -5.15569274262773
C            3.92722845957374       -5.65232600414308       -4.92208921999302
C            3.48011971435285       -7.06576603452958       -5.32714943511207
C            3.65264616258084       -7.23917879910929       -6.84763395779897
C            4.34252041252073       -8.10390750303042       -4.58475291593131
C            2.00201221831366       -7.32228495360900       -4.97347931373425
C            3.06799078318692       -4.74234694401319       -4.31678203673417
C            3.50263524209418       -3.48727184682343       -3.95293129992967
C            6.65376962429588       -1.69410676427883       -0.25282996874622
C            6.89761661722673       -2.45826575625476        0.86666493878060
H            5.59425835442296       -5.83920038497228        3.52869667718731
H            4.97439190355051       -5.83789313414068        1.88056061503579
H            4.79356172841769       -4.40443823526169        2.88802656633555
H            7.64931135635515       -4.53996296241043        4.14343029369561
H            6.85504913665800       -3.06952853749302        3.59890655362409
H            8.45051071999469       -3.50460260995206        2.96909733519593
H            7.93690485647243       -6.49502514266523        2.62997097020611
H            8.68878312403282       -5.50779645844118        1.37709599138307
H            7.28275944927428       -6.49873748168918        0.99648356087224
H            5.75866392797724       -5.41053884233338       -0.25294233903306
H            5.33250608287596       -4.06314628811930       -2.23119393247188
H            6.56494657605640        2.54020551711582       -2.41684461259752
H            6.52744472693215        4.86848046061210       -3.19064743367717
H            6.12498322154551        5.39066425817728       -7.57019432754448
H            5.96015469446520        7.70671389447975       -8.32704381600212
H            5.48848111751070       10.09141434235367       -7.83487951516410
H            4.85370660399175       11.83070971657472       -6.23587266426373
H            4.38884737768530       11.25166969223798       -3.88525398598935
H            4.55640004856088        8.93151814927658       -3.12884282342724
H            4.99969730581702        6.55508540886439       -3.62940113861805
H            4.78691839546321        3.63710820779216       -6.86230546143950
H            4.26774998452750        2.18187628698471       -8.04816171185104
H            4.84175178114040        1.93363481034487      -10.24094524820887
H            4.07200335250748        2.43464063609687      -12.50244454801764
H            2.49274532239968        2.01858066936537      -14.36663354746782
H            0.56881498285306        0.80946109882268      -15.27292951629879
H           -0.58915730626118       -0.88775822649201      -13.91088505947830
H            0.17393383483606       -1.37959532036430      -11.63958240111752
H            1.73824807575230       -0.94893089695226       -9.77678331717283
H            3.45168223790041       -1.94695353285022       -8.59587600137380
H            4.22896279501746       -2.41352748667667       -6.33022722131081
H            6.69547878702876       -3.69999197697365       -4.97399555942610
H            5.92193546570270       -5.93619700366287       -5.62639319327367
H            4.69403949400137       -7.12235581861805       -7.14423987365101
H            3.06515926734659       -6.49787118455094       -7.38859268963259
H            3.32452788852898       -8.22810620851187       -7.16669733421720
H            5.39530462458445       -8.00388383895024       -4.84500832668113
H            4.03302532829649       -9.11835465911224       -4.83468961430184
H            4.25100576542208       -7.97924959562407       -3.50608589253559
H            1.34688501085661       -6.62375651799881       -5.49318943643318
H            1.83263537870343       -7.22554532940902       -3.90144938627595
H            1.70484861419458       -8.32977060561253       -5.26373265018924
H            2.04588140402657       -5.01525633332305       -4.12380876043448
H            2.83269126062700       -2.78911550862067       -3.48181461602662
H            6.89831228644082       -0.64625054664306       -0.25705349904306
H            7.33636724381575       -1.99146420608127        1.73044394254070
