29
 energy: -4.730825418776 gnorm: 0.000763503309 xtb: 6.5.0 (97a52f5)
N            1.15794811397987        0.17050179530260       -1.01780576144564
C            2.44794697852206        0.01100214325971       -0.59494022793207
C            3.21494483558901        1.11457430651466       -0.18605701811804
C            4.51763962712519        0.96531794536353        0.23958748233099
N            5.30422207820846        2.11012940965889        0.60488403871398
C            5.07868382742935       -0.29887240072715        0.24854290758162
C            4.35095050774133       -1.42377386448091       -0.14691921847306
C            4.97372063314032       -2.72478338653084       -0.11558735291419
N            6.21298274947335       -2.91543097871790        0.27481968945340
C            6.57553368374943       -4.24446042402177        0.21502486665328
C            7.82833967424351       -4.76307341428772        0.56388017454589
C            8.05387912108379       -6.11315024589326        0.45324371921180
C            7.05461626255106       -6.96790636026608        0.00139468313230
C            5.81720516084128       -6.47637015503637       -0.34563706276083
C            5.57872036869250       -5.11735493982926       -0.23883427656846
S            4.15079491014618       -4.19650453193271       -0.59240933740355
C            3.03877336994372       -1.25583072459409       -0.56377068216564
H            0.70129563856964        1.06208396300155       -1.07452403201641
H            0.58297494872795       -0.58689325029008       -1.33794401475557
H            2.77629465414755        2.09379812039888       -0.21041360601186
H            4.76904580416083        2.84279250186273        1.08604164153025
H            6.07904496016356        1.89567082076543        1.24409278256642
H            5.74104363030239        2.57855310467962       -0.19752224442877
H            6.09669711842454       -0.42728432364836        0.56338020919199
H            8.59505302980650       -4.09468800706871        0.91393144213113
H            9.01743476519275       -6.51627953775256        0.72102063117761
H            7.25170677915035       -8.02455163012471       -0.07801778410802
H            5.03598149703664       -7.12853983282107       -0.69778499881291
H            2.46806527185474       -2.11093610278475       -0.87252665030510
