28
 energy: -6.118895633415 gnorm: 0.000458009285 xtb: 6.5.0 (97a52f5)
N            0.94441383800776        0.05402354782619       -0.05683889295723
C            2.33195019963280        0.00970099139199       -0.04837841396482
C            3.00345525409495       -1.21670214591064       -0.04063619714143
C            4.39195527145811       -1.28583158031023       -0.01985494561926
C            5.09595162885242       -2.53353016884860       -0.00843606298227
C            6.44667325316666       -2.57599852370822        0.00984765840570
C            7.22763657111950       -1.37610813811007        0.01887995939618
C            8.62322915238253       -1.39231964335685        0.03542917263509
C            9.34303998239240       -0.21482775693438        0.04302242231071
C            8.70007567714569        1.00632792700344        0.03487658495295
C            7.30631619452939        1.07952207303738        0.01830386084687
C            6.60372546214514        2.32692968544466        0.00884832309042
C            5.25303793941399        2.37097358345951       -0.00914481769498
C            4.47055396796373        1.17092313235726       -0.02004240026108
C            3.08041468071900        1.19070831272277       -0.04047730940726
C            5.13861369040919       -0.08009752223157       -0.00926819390867
C            6.56065021663567       -0.12565541049483        0.00976216271429
H            0.40081774758690       -0.75967214832283        0.17561987208562
H            0.45401250109807        0.89997697866355        0.17852979994307
H            2.43012821797100       -2.12499991053836       -0.04980317388520
H            4.52535177388868       -3.44611397311485       -0.01484725847552
H            6.95850268098435       -3.52276052095459        0.01783808481212
H            9.13556532802048       -2.33895107447278        0.04183362711734
H           10.42027257448140       -0.24935010106296        0.05551684643792
H            9.27181379677564        1.91830260977663        0.04100100441232
H            7.17510859895604        3.23901399382411        0.01677980633871
H            4.74205480796307        3.31819998989109       -0.01615673806186
H            2.56610899220545        2.13372579297319       -0.04845478113973
