26
 energy: -5.416996845532 gnorm: 0.000557481733 xtb: 6.5.0 (97a52f5)
N            1.12005369606602       -0.03150385415555        0.04071799889632
C            2.50179092520824        0.00754701824364        0.07027772811842
C            3.23374439330877       -1.15840109272515        0.10162602659909
C            4.64386695631201       -1.17344058806178        0.07566591014871
N            5.27948206721198       -2.34640187225101        0.09936091821247
C            6.61388504203210       -2.25901686178676        0.06504341902150
C            7.38143845547588       -3.43953230685484        0.08478847540763
C            8.76625619191173       -3.47599672647226        0.05260874036281
F            9.45342653518906       -4.76371115830702        0.07265441241452
C            9.47267154860691       -2.20163179427567       -0.00271738502875
F           10.92869883590066       -2.10265904480488       -0.03404698494898
C            8.70821208545640       -1.04607135059060       -0.02356233639372
C            7.30051267967490       -1.02020277853667        0.00789858721069
N            6.66735328246408        0.15795237080166       -0.01668582807754
C            5.33598319342933        0.07537035892297        0.01544538207868
C            4.57615850083274        1.26354446059127       -0.00148307387469
C            3.19967487726481        1.26671593453096        0.03823017387073
N            2.50083177605653        2.45884493861178        0.07598148528415
H            0.63380377917152       -0.89667290345084       -0.12152436308327
H            0.58652492562692        0.74921901023024       -0.30122313509431
H            2.71808232025063       -2.09901570762935        0.13436318252611
H            6.85062767713175       -4.37245421108391        0.12655979621333
H            9.21853275190674       -0.10183102943831       -0.06594415721248
H            5.10118116296519        2.19897699742132       -0.03390985922638
H            2.97702023601224        3.32863058849080        0.23822505978692
H            1.55752610453288        2.49592160257999        0.42017982678805
