26
 energy: -4.028093889886 gnorm: 0.000190324028 xtb: 6.5.0 (97a52f5)
N            0.79456306393781       -2.02277630333960        0.03485262049084
C            2.08052395448302       -1.79082964057313        0.03430233860276
C            3.05482231011985       -2.66877627483190        0.03152318615601
C            4.36304861603680       -2.37796350776381        0.03054574794254
O            5.38242840690451       -3.21125677010312        0.02878727647830
C            6.64180759657861       -2.66682875684315        0.02529255814039
C            7.71866167929920       -3.53220101958302        0.02365433402780
C            9.03351298395903       -3.20232469759024        0.01942850643181
O           10.02249401396403       -4.19903308090313        0.01797763087814
C            9.34635297470530       -1.77750703389976        0.01648749949686
F           10.71675712383936       -1.26754618867048        0.01157360368262
C            8.29070864571759       -0.92915814471056        0.01850827132674
C            6.96092820598745       -1.27419574687812        0.02276698672261
C            6.00213987166798       -0.31450453803520        0.02445465833848
O            6.30270380705698        0.91530461457796        0.02256197308736
C            5.51191569493683        1.98425757533561        0.02381570381586
C            5.80017102931535        3.27260830708829        0.02263793449723
C            4.96850177646604        4.24473225094349        0.02422957451149
F            2.85426128426731        3.62670590860294        0.02596007416152
H            0.49510602027438       -2.95545833393445        0.03152921538182
H           -2.31931048975884        1.35704651896189        0.04530366054919
H            0.82689129755190       -7.30782392872101        0.17883582098363
H            4.80990012541009       -5.73050272495825        0.05798485364215
H            8.14929212598997       -8.40347547262143        0.03385454528351
H           12.03251764950127        1.27098260269325        0.00950183786468
H            7.76866023176444        7.71845438572281        0.02837958741088
