13
 energy: -2.593269519668 gnorm: 0.000591757398 xtb: 6.5.0 (97a52f5)
N            1.20220699488056        0.02718120858856       -0.12163434674515
C            2.56991256137890        0.02107275610303       -0.01513376057094
C            3.24729656234320        1.25355837960646        0.05954473910150
C            4.59415178204459        1.25768265447702        0.16462583307465
N            5.23540743549134        0.06342684760995        0.19366899449161
C            4.54413350178561       -1.11655958060481        0.11758587754402
S            5.41683247358620       -2.55591870760073        0.15918155133022
N            3.21294912897129       -1.15502516565534        0.01237376387069
H            0.63574233385674        0.85530259453459       -0.16671399105325
H            0.67818131225760       -0.82315686912654       -0.19481315735372
H            2.68800744296029        2.17156814139362        0.03297721937773
H            5.15447161747469        2.17642690050520        0.22328113449405
H            6.24965685296898        0.02745084016900        0.27373614243859
