36
 energy: -7.856175120078 gnorm: 0.000455241340 xtb: 6.5.0 (97a52f5)
N            2.29604686716272        0.11171259387066       -0.02588271300528
C            0.92005931878519        0.05627061919835       -0.02004013888575
C            0.24668195178527       -1.04797951439811        0.51516099353212
C           -1.12322089252468       -1.10033594428643        0.52031306015806
C           -1.88778293002569       -0.05611795553961       -0.00859540979324
C           -3.36132890174638       -0.11547884051077       -0.00899631871518
C           -4.06328095649122       -0.74337060471404        1.02422576908265
C           -5.43527812526870       -0.79216530445644        1.01523163581697
C           -6.16451459113801       -0.22060870942036       -0.01840823254039
C           -5.47896057594224        0.41536390118909       -1.06340031149343
C           -4.09693065263371        0.45715952544486       -1.04212357400461
C           -6.20832573298632        1.03969462527902       -2.18076089947830
O           -5.61039952301550        1.59441616692007       -3.08325445732261
C           -7.68000067104651        0.97314223489469       -2.17043929430852
C           -8.40439909261738        1.54944548813320       -3.20355382893629
C           -9.77924910831420        1.50047175455755       -3.21368174722497
C          -10.45450802979464        0.87108787011732       -2.18564514439272
C           -9.75146543160752        0.29476940150900       -1.15291934850889
C           -8.36508598903115        0.33556084559890       -1.12619978374789
C           -7.63402141985748       -0.28598559495236       -0.00716481585991
O           -8.22974065907390       -0.83699198129918        0.90011660546021
C           -1.21326265043251        1.04598047203385       -0.54265020213612
C            0.15629147242722        1.10342871198621       -0.54854095356760
H            2.87995689459078       -0.61121610778966        0.35627883348525
H            2.81584822338156        0.89302787228661       -0.38546855487798
H            0.82233011469745       -1.86073844005168        0.92113136115233
H           -1.62253565831379       -1.96664350149144        0.91747603864127
H           -3.51762486102101       -1.17396771572136        1.84530425885076
H           -5.97116482880650       -1.27382184484178        1.81511349648561
H           -3.58964512497663        0.93344943483993       -1.86123743478037
H           -7.86700984649014        2.03734119244099       -3.99868340444325
H          -10.32899118871910        1.95300923854356       -4.02241856923872
H          -11.53131981570353        0.83212372221045       -2.19269779335808
H          -10.26695044319353       -0.19763427393783       -0.34612815624760
H           -1.78316939422406        1.86930368200769       -0.93619815144303
H            0.66201225217017        1.95961698034627       -0.95846281435537
