103
 energy: -20.703305844782 gnorm: 0.000917715498 xtb: 6.5.0 (97a52f5)
C           -1.61696946820681       -4.15512143380349        4.76933354052002
C           -0.16387759431268       -4.19989586552842        4.26018220848899
C            0.64050579955733       -5.14561946631938        5.17373997337158
C           -0.13370650984717       -4.76613327765364        2.82846988372996
C            0.41835401296588       -2.77724790501401        4.25736255853359
C            1.54119467667813       -2.42681422909078        4.99763520200617
C            2.03445089410285       -1.14160356906189        4.97975661180023
C            1.42662996122530       -0.14753035079620        4.21889777036209
C            1.90642328853484        1.23450287276318        4.18613843788287
N            1.26092598586116        2.19490398343355        3.53820166089095
C            1.97522501743614        3.32871880953103        3.72353603529137
C            1.71632274653694        4.64878400593990        3.20794133567862
C            0.61162449953221        4.90204608131683        2.38997946147750
C            0.38704180589706        6.15274998931410        1.88475031007030
C            1.26093283215145        7.20923644551020        2.17667152522181
C            1.03521321473900        8.56161345897034        1.61995439088793
C            1.28743517272630        9.71296751185477        2.40420268850386
C            1.10461853578092       10.96371944907811        1.90238512304146
C            0.65544117302631       11.15148180341189        0.57435657896475
C            0.46137728633557       12.43576476093863        0.01865001723513
C            0.03102015987834       12.57841096781366       -1.26689237281375
C           -0.22779029561169       11.45133007087137       -2.05821474119979
C           -0.05189022343545       10.19803482672454       -1.55353804284120
C            0.39397482595194       10.01220785112373       -0.22392081526726
C            0.59293543507875        8.72919282751845        0.32738629383615
C            2.35378969011392        6.95916578710198        2.99238727771820
C            2.61153746092162        5.69457513580744        3.52818736984800
C            3.77707534086661        5.43104860670820        4.37874105208614
C            4.66663255010267        6.44433352032650        4.74496077958552
C            5.77940392340179        6.20642899214957        5.53530461419292
C            6.69613670047232        7.31200474839623        5.90245439035124
C            7.44441495849016        7.20823511557992        7.13817637078203
C            8.74895117672946        7.57139590706309        7.39436024248717
C            9.67103448833723        8.05432389733092        6.48793748262564
C            9.36223550526584        8.31084969417416        5.20278387396854
C            9.85956264082757        8.82978651256450        4.08255314567467
C            9.08780851159053        9.02855321240639        2.91415954202416
C            7.74698401248426        8.78795784852051        2.70955328959889
C            6.80574299125147        8.34564535005798        3.62367486896023
C            6.88007651557659        8.38341229935510        5.02202806482412
C            6.01304971981564        4.89833105297395        5.97945772200636
C            5.15782289260514        3.88563240774096        5.64890987790022
C            4.02959455211599        4.12193860691663        4.85489650276960
C            3.10298440269095        3.07740595360650        4.51126580198429
N            3.06798303489882        1.72660308477913        4.81102101685515
C            4.07656667454906        1.00234659125314        5.54916498477692
C            4.00999084900517        0.90205655063372        6.93067165613057
C            4.99548437229790        0.24122148842644        7.62937588574406
C            6.07754242223571       -0.33841429059647        6.97798764973434
C            7.16508478049262       -1.05206041334119        7.79611994403906
C            7.81179356040283       -0.04630000065543        8.76687935894388
C            6.52978223932596       -2.20746769851637        8.59206383974976
C            8.27056232210296       -1.63519380273452        6.89414972077648
C            6.13290990944653       -0.23477285781464        5.59271285495821
C            5.14981652162127        0.42424847435149        4.88852176300539
C            0.30346658287205       -0.49897936434093        3.47705479467810
C           -0.18728755889063       -1.78541842831906        3.49627448056268
H           -2.04923187468606       -5.15486149557527        4.80366879642534
H           -2.24528521071378       -3.54389011168200        4.12306252136614
H           -1.65996653840582       -3.73477758631780        5.77379233794697
H            0.21068862977076       -6.14692966112140        5.16715002195417
H            0.63553024866884       -4.79296747654381        6.20467253589799
H            1.67432768820635       -5.22945386743302        4.84007757938085
H           -0.53020158417566       -5.78071817734140        2.80225074574318
H            0.88614477572320       -4.79153021103930        2.44588012654352
H           -0.73051188831678       -4.15850791697816        2.14966839179596
H            2.03791710912997       -3.16656605056703        5.59987992575244
H            2.89893398162820       -0.90042964286507        5.56733259300764
H           -0.05769956125746        4.09156672801268        2.16045268682018
H           -0.47160530168128        6.33882209262047        1.26300067619442
H            1.61971617189800        9.58442957462172        3.41985741958702
H            1.30100854780563       11.82881579217402        2.51226055503100
H            0.66067578444560       13.30201811551680        0.62586943406129
H           -0.11187782128540       13.56339587006594       -1.68070445851391
H           -0.56737818616405       11.58052106883542       -3.07298600226132
H           -0.25035351758470        9.33253533458165       -2.16222531804494
H            0.41152276129911        7.86569667201139       -0.28631959374181
H            3.03119465703598        7.76813004613143        3.18629486130683
H            4.49147063202619        7.45070781281420        4.41719830839759
H            6.93492777843487        6.68252549094347        7.93246698954683
H            9.12497070479019        7.40192364612366        8.39091958928430
H           12.63869327218276        0.32891683399908       10.39956395016520
H           10.89232180344677        9.13614063731075        4.08225148126433
H            9.63448271214290        9.40858341381606        2.06386437700803
H            7.37403039194405        8.92717024277917        1.70646214853504
H            7.39851178738651        9.23332189183896        5.44090792911694
H            6.88203386469437        4.69620171437348        6.58146884626015
H            5.34872797109684        2.88965052991407        6.00131329886546
H            3.17957226943416        1.35395574208113        7.44494407622031
H            4.92896580609039        0.17696071371919        8.70157748032968
H            7.07996727825277        0.35587333495696        9.46612046386448
H            8.24734544305977        0.78979427348115        8.22024955392191
H            8.60341378313822       -0.51843326878148        9.34812045718755
H            5.77972664491049       -1.84158713018817        9.29181680057505
H            7.28394792629940       -2.74680857791588        9.16475728527564
H            6.04471119949864       -2.91597183052533        7.92113962325265
H            8.76819686260825       -0.85007647019589        6.32555860030953
H            7.86269687408331       -2.36527852204966        6.19561738683601
H            9.03006064045841       -2.13951281733894        7.49116874001685
H            6.95540568354683       -0.67060466611253        5.05406785926648
H            5.20291465639926        0.50536356590884        3.81670904462904
H           -0.18104543294215        0.25842201542499        2.88601563498035
H           -1.05936640263955       -2.02687128028536        2.91384839735848
