21
 energy: -3.948040906125 gnorm: 0.000958586749 xtb: 6.5.0 (97a52f5)
N            2.32968724835555       -0.06563818291874       -0.01790478504273
C            0.94878153073488       -0.01463636872349       -0.02823360203735
C            0.18652075488688       -1.18600285816976       -0.02761758484620
C           -1.18438670777733       -1.13171814339748       -0.02176412997215
C           -1.85920051239437        0.09113238852292       -0.01843420876409
C           -3.31625246632822        0.10799599259401        0.00406650838397
C           -4.08018564624375        1.19290953982448        0.01469637176035
C           -5.58174664468859        1.07982500541681        0.05258487244092
F           -5.99290224098828        0.40914328846074       -1.03745151150271
F           -5.93649739059007        0.41026681729466        1.16273424900459
F           -6.11150080483716        2.31538022264549        0.06565253755050
C           -1.09566850531742        1.26066734855592       -0.02911148780710
C            0.27560607768567        1.21005791358628       -0.03514899637335
H            2.84146082989307       -0.92086125710778        0.10464693784823
H            2.90246128929009        0.75158809488341        0.09476006331693
H            0.69172202666894       -2.13602367390579       -0.03175949691141
H           -1.75602420830153       -2.04438732196434       -0.01850645649656
H           -3.81608436790306       -0.84568295430779        0.02071112209370
H           -3.66282890350692        2.18070518854652        0.00179231521484
H           -1.58639308758202        2.21745374478313       -0.03221889788799
H            0.85126172894363        2.11915521538081       -0.04368381997237
