34
 energy: -7.081368398475 gnorm: 0.000329122260 xtb: 6.5.0 (97a52f5)
N            2.32886702106228       -0.05663071571410       -0.10761067909496
C            0.95136844273084       -0.01090246982839       -0.02793567940274
C            0.21546762988952       -1.13256125000595        0.37487333064475
C           -1.15292939729919       -1.08563854211764        0.44840536716713
C           -1.85793103223777        0.08008372268107        0.12143364810718
C           -3.30538256229673        0.08472931891820        0.20280521242739
C           -4.10634678923756        1.09179349992731       -0.19007187696183
C           -5.55776501463731        1.09029703073760       -0.12016171324680
C           -6.28312714414151        0.06940085317794        0.54465652545009
C           -7.64242161273571        0.08295836408026        0.58954268216665
C           -8.37894708018877        1.12055797529529       -0.02924828974495
C           -9.78989151684836        1.16016758741930       -0.00768399930180
C          -10.46601488615834        2.17565313980469       -0.61797075475866
C           -9.77002661839184        3.19753499510519       -1.27565742370893
C           -8.40781096615800        3.19123268507321       -1.31472544825644
C           -7.67391027024178        2.15339085468024       -0.69324716291270
C           -6.26554400717200        2.11270435310164       -0.71912852898459
C           -1.11921553367641        1.20192444282356       -0.27739615944412
C            0.24976332706660        1.15794564067571       -0.35033389489696
H            2.86474479264143       -0.82695672852657        0.25428246775734
H            2.88876657499027        0.76767424798517       -0.24459029606861
H            0.74254433901147       -2.03661620450673        0.62441553906191
H           -1.70350883425709       -1.95805799966081        0.75661806675852
H           -3.75832533538007       -0.80938305115825        0.58985092764824
H           -3.65637015828195        1.96957523033405       -0.61593921046591
H           -5.74793856050053       -0.72543701858267        1.03247002764200
H           -8.17722775290735       -0.69967099277118        1.09963441077679
H          -10.32594388552690        0.37525298404210        0.49755418144947
H          -11.54342810347525        2.19440246753196       -0.59591388206548
H          -10.31849896193744        3.99253798435877       -1.75405990603930
H           -7.87351989140232        3.97643893373427       -1.82135125592766
H           -5.73292825626106        2.89646761116498       -1.22709233075836
H           -1.62989539161310        2.11521563353116       -0.52463144199541
H            0.80512743557248        2.02579541669062       -0.66013245302047
