54
 energy: -12.189613122201 gnorm: 0.000459336432 xtb: 6.5.0 (97a52f5)
N            1.34868095071133       -0.00773714974097        0.30683581685317
C            2.71054131935135        0.02699480171668        0.06628012976671
C            3.39052636983046        1.24557531186389       -0.04437143768499
C            4.74220923985554        1.27733697155687       -0.28473312931184
C            5.47295611950821        0.09713533814121       -0.42392380237941
C            6.85406082842320        0.12968366208017       -0.67300558398593
C            8.05679707523915        0.14159167429817       -0.90262118543405
C            9.42945061935483        0.14242861383378       -1.18581418447897
C           10.09822287324966       -1.07306059366155       -1.32501837196279
C           11.44068533427209       -1.12970120507290       -1.61318151016385
C           12.18832081191434        0.04098786082130       -1.77984839645677
C           13.58015088321815        0.01287732254768       -2.08515890592798
C           14.28546701192828        1.15790159077177       -2.24702160914810
C           13.66179673974724        2.43282871372217       -2.11752821396807
C           14.37123177823193        3.62703103405821       -2.28424086242016
C           13.74333706601195        4.84283979343981       -2.15759281931261
C           12.38459766642632        4.93820731886790       -1.85944081803627
C           11.79369003740716        6.20454548433148       -1.75124560836341
C           11.28620209224973        7.31633934151837       -1.67490094607414
C           10.72112693033295        8.59948508649602       -1.60451750836640
C            9.33707274970380        8.77448091470020       -1.60669794705737
C            8.78481218106281       10.03015752819409       -1.54168715408345
C            9.59722099303701       11.16798279517023       -1.47128003792068
N            9.04338670573832       12.43393345326250       -1.40021531715120
C           10.98559212084112       10.98985810748711       -1.47028675537192
C           11.53291964322996        9.73217525930276       -1.53561215424248
C           11.63458615203987        3.75234420298701       -1.68136360314203
C           10.24221146271226        3.77172922636677       -1.37537655841648
C            9.53676421957145        2.62686948273137       -1.21453583600541
C           10.15286008213751        1.34758433173761       -1.34328086199485
C           11.53774177345189        1.29173419409683       -1.64323441866544
C           12.27996922960250        2.49648719335085       -1.81298147432818
C            4.79734636126449       -1.11868017494932       -0.31372902138650
C            3.44583177811552       -1.15581322558476       -0.07358105708424
H            0.77465218290083        0.81363829516790        0.22335754035382
H            0.81406709807231       -0.85343460622577        0.20571405711422
H            2.83589458351389        2.16113640259427        0.06184867149381
H            5.25609537977709        2.21966663647945       -0.36927472025600
H            9.53745375368436       -1.98435201639778       -1.20378427767990
H           11.93145598501956       -2.08196693700912       -1.71670245499063
H           14.06644658871435       -0.94176379950923       -2.18787043426332
H           15.33565724669325        1.11881223836648       -2.47924497337352
H           15.42123753849197        3.58259625402549       -2.51645369832210
H           14.30445469347360        5.75208221054865       -2.29200029992615
H            8.70359511651254        7.90562145857211       -1.66136071911644
H            7.71627475133505       10.15405158907736       -1.54177132609490
H            8.06973329816350       12.59736889150798       -1.59153293675484
H            9.59743163828786       13.26244128419698       -1.53410124447676
H           11.62061140875582       11.85646726640635       -1.41640408262493
H           12.60217490647537        9.60557823006000       -1.53478868545262
H            9.75287534375763        4.72432412683657       -1.27257877369268
H            8.48676528038092        2.66957004020955       -0.98399825557839
H            5.35432428184831       -2.03387903934853       -0.42106493349061
H            2.93457172436325       -2.09857278604850        0.01051269085627
