71
 energy: -15.886720162148 gnorm: 0.000939570820 xtb: 6.5.0 (97a52f5)
N            1.25549960562304        0.26869530145239        0.32532706590255
C            2.61264532181739        0.30932016297406        0.07882164393039
C            3.31655797723749        1.51708882250237        0.12993854022677
C            4.66619780721116        1.55422323559681       -0.11613352360838
C            5.36928700965561        0.39042351896474       -0.42312346951436
C            6.74835499698572        0.42380945496375       -0.67598458082682
C            7.95079994073299        0.41846468790304       -0.90372507892105
C            9.32489048498626        0.37970916153033       -1.17064534414479
C            9.96965234330827       -0.85403609161205       -1.22628351398593
C           11.31368370682413       -0.95445485037927       -1.48967965691272
C           12.08683364090711        0.18849579052891       -1.71402215570834
C           13.48163080013081        0.11499109556417       -1.99175532163016
C           14.21289768941683        1.23359996078702       -2.20656202356070
C           13.61493128425096        2.52525556101772       -2.16017510882493
C           14.35320007864941        3.69304568082796       -2.37392171589511
C           13.75259718470939        4.92650461334705       -2.31127923862897
C           12.39359471414441        5.06612130327947       -2.03799844640935
C           11.84091478811179        6.35074554305323       -1.96111704502283
C           11.38538399295710        7.48216639422049       -1.85964692946073
C           10.89964599095572        8.78892958944338       -1.70465017102897
C            9.64630140123849        9.02663970721860       -1.14398827658556
C            9.18653446308850       10.30664726995846       -0.96207769657867
C            9.96357042278262       11.41498303211119       -1.32866149089369
N            9.47911625658110       12.69473871039145       -1.10085223485317
S           10.49922126570021       14.07230274070089       -1.19113051526189
O           10.88205814608499       14.37294424268977        0.22806575944169
O           11.56777561321515       13.98016707840140       -2.24137814879841
C            9.26404268924470       15.22725289967834       -1.80615207976270
C            8.27491631275001       14.72850229406790       -2.62078437445064
C            7.29450814893809       15.55883743520022       -3.12211715294044
C            7.30110574217369       16.90297237372297       -2.80527953344609
N            6.25981618218868       17.79250691066953       -3.32518373078015
O            5.39438787497697       17.31932687071453       -4.07518177736949
O            6.28204650241699       18.98704652115696       -2.99619000899092
C            8.29599911420774       17.40444035535781       -1.99277533615355
C            9.28266022231136       16.57581236065500       -1.49499660803899
N           10.33184548389013       17.17873053662392       -0.66068488161404
O           10.00924035608336       17.65605219090256        0.43625021724953
O           11.49073769602798       17.21477410323835       -1.09762144043330
C           11.21360511937061       11.16292611945124       -1.91010008200495
C           11.67067761082339        9.88327346387177       -2.09063394352982
C           11.61215293597494        3.90765654580383       -1.82630994887002
C           10.21611528679846        3.97271565244802       -1.54985728083862
C            9.48321565237367        2.85373729143451       -1.34304520850718
C           10.07390073208165        1.55812236056294       -1.38865520521033
C           11.46065639930463        1.45692760254259       -1.66232800111182
C           12.23070546527896        2.63401363876762       -1.88508970891441
C            4.67002478198049       -0.81448727511964       -0.47367744304997
C            3.32068724452066       -0.85715149365994       -0.22831210125362
H            0.69959952748400        1.09374899742318        0.46295273276889
H            0.70324355923034       -0.56292561955649        0.21480676956814
H            2.78303154627745        2.42037784680302        0.36707137869661
H            5.19962743727690        2.48833925626697       -0.07412125850023
H            9.38883859365384       -1.74494833528201       -1.05763368674708
H           11.78579849501876       -1.92083554706750       -1.52628230527870
H           13.95051529493715       -0.85296203902255       -2.02808537001353
H           15.26608919274997        1.15924861094335       -2.41477370846141
H           15.40560771092150        3.61504842567941       -2.58485410606662
H           14.33824749661557        5.81593064006239       -2.47062688495040
H            9.04108011833896        8.18702167819245       -0.84821109997607
H            8.21639293324384       10.47624118728873       -0.52932250568803
H            8.88834843409808       12.81559535557532       -0.30204256947349
H            8.27043899820096       13.67781788063105       -2.85951827150076
H            6.51484815855466       15.17519981829360       -3.75793379490122
H            8.29891016356256       18.45115371713646       -1.74295340404734
H           11.81581234420033       11.99865849746206       -2.21442978556827
H           12.63818937977922        9.70932482733112       -2.52957314641271
H            9.74552727256782        4.93917495237382       -1.50958995680840
H            8.43014083434992        2.93060285660498       -1.13758226495572
H            5.20705328809022       -1.71717474147539       -0.71022071710615
H            2.79073474000507       -1.79216874117614       -0.26981173693706
