17
 energy: -4.664993785394 gnorm: 0.000719956696 xtb: 6.5.0 (97a52f5)
N           -2.41602296151330        1.04472677881982        0.08050274649850
C           -1.22783417912148        0.32315992497501        0.05860521694761
C           -1.23353420735376       -1.07791642027368        0.04096692517738
C           -0.05488464686521       -1.78166129186321        0.01715018495512
C            1.18207627821753       -1.14387003209806        0.00976043241392
C            2.41953069765616       -1.99025154706876       -0.01540140772111
O            3.53003227830488       -1.42826906589279       -0.02625168375007
O            2.24822573700313       -3.22462302051169       -0.02405020603478
C            1.20981537866241        0.27433930913740        0.02869836321972
O            2.38921569731394        0.99261743796615        0.02446819047634
C            0.00367221246737        0.97244739825069        0.05288002727754
H           -3.28496351424664        0.60401770197181       -0.17295376314502
H           -2.42588037114978        2.02018025019210       -0.16900352347943
H           -2.17771884904314       -1.59538384507855        0.04549473915379
H           -0.07507782520673       -2.85837823426380        0.00257943157134
H            3.10736197825588        0.32948175081749        0.00572794497880
H            0.03257629661872        2.04591290492006        0.06809638146035
