64
 energy: -14.599358384418 gnorm: 0.000326755942 xtb: 6.5.0 (97a52f5)
N            0.51753916490886        0.27236625669179        0.63136596794190
C           -0.68088209704068        0.94189285918365        0.47942412751507
C           -1.90114486702415        0.27819102979302        0.64104107224397
C           -3.08761332464381        0.94840974188372        0.49383207100015
C           -3.11975612774337        2.30642588152763        0.18014605893787
N           -4.35916885934197        3.00334793132740        0.03890043235085
C           -5.46131553192856        2.62834013703238        0.84308669919122
O           -5.38692804099484        1.71813045723271        1.65065795003477
C           -6.71834178748864        3.36383091420961        0.70539105960552
C           -7.80990564887873        3.02298424642991        1.47949896344844
C           -8.99890057641190        3.71016033257611        1.37890606454041
C           -9.15566117741255        4.77866767724553        0.49422935803029
C          -10.39783234921633        5.51723842087493        0.38750646143189
C          -11.51508770178682        5.21031166723335        1.16629448454195
C          -12.68779821888802        5.92420775061362        1.06103713544212
C          -12.80774754700645        6.97771096453735        0.17644475573525
C          -11.70801234507384        7.32385496336085       -0.63570994838850
C          -11.81851116888293        8.39511684550816       -1.54631332635487
C          -10.73386666262894        8.72255307882687       -2.33600544666260
C           -9.54931585348053        8.02576699492750       -2.24666309969237
C           -9.38959889471805        6.96102258312174       -1.35787292981447
C           -8.14487105489761        6.22695595672539       -1.24589548940220
C           -7.02254798594103        6.54187443989833       -2.01425547526744
C           -5.84336289365386        5.84071738789758       -1.89375749125006
C           -5.72129698696038        4.79206875277253       -1.00346665314582
C           -6.82844081649931        4.43349142381106       -0.20700201449253
C           -8.04973987261080        5.14935891277581       -0.32112441878834
C           -4.45663673727721        4.06491286951143       -0.89156836716347
O           -3.51813154715526        4.38373705377034       -1.60133982143765
C          -10.49234016800483        6.59643657680132       -0.53541120105079
C          -13.06149383246504        9.16016050166535       -1.64884226876735
O          -13.12937135495445       10.09043590552532       -2.43376407832110
N          -14.15226744846561        8.80375455370789       -0.82100995647744
C          -15.36410286460860        9.55734879176246       -0.89249462117509
C          -16.14682588730968        9.76922223611932        0.24166394268014
C          -17.30865395711284       10.49366240017662        0.18117122590400
C          -17.74499783245435       11.04435295071549       -1.02802494353705
N          -18.91520989993137       11.77590133282958       -1.09432230182081
C          -16.96310575656653       10.83227382188829       -2.16812556431857
C          -15.80212324195661       10.10722839519007       -2.09630041125356
C          -14.06434881454808        7.72067421691012        0.08489949590116
O          -15.00741759948513        7.39082683600612        0.78353400370443
C           -1.90128374824414        2.96430067997342        0.01779083085201
C           -0.70913483668585        2.30389587818430        0.16345713699767
H            0.57401895222496       -0.72173963983893        0.76330081930355
H            1.40653446178781        0.69269072190151        0.42668407761988
H           -1.89542730294185       -0.76806511918013        0.89042636136282
H           -4.02203045117834        0.43531049404336        0.63962440861088
H           -7.70915875532360        2.20421591292331        2.17178472070426
H           -9.81806316707148        3.40754822610287        2.00411857389626
H          -11.47148061053833        4.40073639831144        1.87071260624367
H          -13.53781544889121        5.67148854697157        1.67205889198615
H          -10.83402895699768        9.54323114471663       -3.02611006209248
H           -8.73460313654547        8.31983339288934       -2.88173467858380
H           -7.06591509282658        7.35101661795512       -2.71923123749315
H           -4.98922785762793        6.10115980350643       -2.49571442023539
H          -15.82685824152560        9.33335934565743        1.17194629027820
H          -17.90291425318292       10.64206403006574        1.06532814425413
H          -19.43033569658742       12.04879857430801       -0.27642569852709
H          -19.18991813144000       12.28525305000872       -1.91524849570223
H          -17.28482778641981       11.25077766404627       -3.10520050217691
H          -15.19557274093166        9.96512608937897       -2.97359348176313
H           -1.91493571549994        4.00832792420570       -0.24195348259324
H            0.22148468500067        2.82734421323153        0.03373769543321
