63
 energy: -14.379675473350 gnorm: 0.000954194376 xtb: 6.5.0 (97a52f5)
N            0.54575225915156        0.31133317227511        0.55047258217411
C           -0.65734211137389        0.97538783300915        0.42715873074209
C           -1.87202566744097        0.30071219423242        0.58875526124704
C           -3.06391944264130        0.96588981684485        0.46715163233585
C           -3.10908454193828        2.32983818571824        0.17839073765391
N           -4.35371693982040        3.01870905572385        0.05428737703055
C           -5.46111575948376        2.60159774892182        0.83095042581836
O           -5.38348679261060        1.66726472680731        1.60935945822142
C           -6.72867044546741        3.32156976980491        0.70097852963251
C           -7.82511305482845        2.93654480112960        1.44535797950258
C           -9.02406950991697        3.60914757833960        1.35180601483461
C           -9.18526684856974        4.70547411537975        0.50434739338560
C          -10.43744097343608        5.43074154370107        0.40661582703396
C          -11.55753702219309        5.08649653809833        1.16363636108010
C          -12.73959719131840        5.78803275098163        1.06765260040229
C          -12.86505474862106        6.86422556988734        0.21302073954515
C          -11.76177240983356        7.24832533829450       -0.57777702824846
C          -11.87800864393340        8.34222915500916       -1.46100206450699
C          -10.79082199004710        8.70780493678680       -2.22817296797477
C           -9.59565677174229        8.02785877700706       -2.14230890079817
C           -9.43006315361365        6.94271994805251       -1.28135193872860
C           -8.17323914176335        6.22731869628544       -1.17185618819396
C           -7.04523148032044        6.58809657830478       -1.90890858979713
C           -5.85571914854857        5.90232653721536       -1.79395554957548
C           -5.73058652484186        4.82518861985165       -0.94047019802044
C           -6.84326618931486        4.42139526131027       -0.17411061870111
C           -8.07399423652314        5.12103449129655       -0.28193167370876
C           -4.45627865814421        4.11278184435196       -0.83747454200708
O           -3.51562666779869        4.47225384262777       -1.52362952597160
C          -10.53690486571582        6.53647428702949       -0.48405910796462
C          -13.13281023058865        9.08831505518662       -1.56041167544023
O          -13.21324881369853       10.03062081255494       -2.32894376733884
N          -14.22232487266890        8.69674841964472       -0.74997077443796
C          -15.44466109480561        9.43573843069947       -0.81708741866381
C          -16.21139903345741        9.65729392493931        0.32435679067921
C          -17.38023290273745       10.37260209350196        0.27096431304020
C          -17.83676370608329       10.90084774256161       -0.93987066648317
O          -19.00881580585025       11.62517083808633       -1.03631883407129
C          -17.06882445500802       10.67881456821331       -2.08576973674327
C          -15.90126910622402        9.96318134478355       -2.02213423935506
C          -14.12880877685489        7.59747788832405        0.13313334081318
O          -15.07259158337483        7.24775242651470        0.82054011225741
C           -1.89554212727289        2.99850435010756        0.01839785379400
C           -0.69780065792186        2.34399182049369        0.13964773650585
H            0.61135111176942       -0.68435744166793        0.66319608488873
H            1.43094531049065        0.74146246087375        0.34961329609411
H           -1.85718787706752       -0.75036383996978        0.81661269999653
H           -3.99318605714392        0.44323710457375        0.61219792544002
H           -7.72119170882109        2.09500289982307        2.10946860474834
H           -9.84742038831840        3.27066435498119        1.95267368130728
H          -11.50992640737898        4.25730618219467        1.84476678066665
H          -13.59165163814303        5.50712201007181        1.66349503373419
H          -10.89652349084148        9.54468625090630       -2.89782066019144
H           -8.77898321914982        8.35106822432077       -2.76042272502181
H           -7.09021465831798        7.42220212487521       -2.58410066642136
H           -4.99658306195069        6.19783792520739       -2.37221584634500
H          -15.87412113321667        9.23575760202948        1.25563552260570
H          -17.95737627062005       10.52992156852341        1.16447645279445
H          -19.44295905105611       11.69455156459887       -0.16594814541532
H          -17.41457361583184       11.08797730518848       -3.01845622208684
H          -15.30396336068826        9.81520826606829       -2.90533322028559
H           -1.91767293746820        4.04730084220446       -0.22114070589621
H            0.22789029295256        2.87656116531763        0.01161631834548
