91
 energy: -18.366704822543 gnorm: 0.000575418418 xtb: 6.5.0 (97a52f5)
C            4.31641110108563       -2.85050171726761        1.31576925467637
C            5.64882535931819       -2.07905990568639        1.35235753568897
C            6.15442179020817       -1.98596024232521        2.80434503619317
C            6.68796366637281       -2.86350885472167        0.52729991736818
C            5.42841543163274       -0.66377300182813        0.79513144409799
C            6.07483983650477       -0.19978181005287       -0.34455866228867
C            5.84057944312752        1.06647121788697       -0.83119150069458
C            4.94709488012153        1.92597253024577       -0.19916097626785
C            4.66274144119305        3.27535757800243       -0.68955061113353
N            3.99103604119399        4.16675186490235        0.02593514701913
C            3.89760604981768        5.27813083044605       -0.73985101729274
C            3.26877731437063        6.53529053217367       -0.42509626245919
C            2.66229703341737        6.74656024796140        0.81579082289466
C            2.08532085201596        7.94913012804451        1.11639460286420
C            2.09185288484875        8.99748945239887        0.18631052027502
C            1.48237378613857       10.30641824963103        0.51553185786253
C            1.60035693851524       10.85020468905344        1.79439252400671
C            1.03627387885777       12.07049805737051        2.09838642432791
C            0.34448688594380       12.77394647704810        1.13275580924822
C            0.21830926328673       12.25272688633830       -0.13941295557349
C            0.78028101309666       11.03217836564225       -0.44647695525769
C            2.68682518858849        8.78543051706537       -1.04806097321346
C            3.28176435475075        7.56750698453428       -1.39076985788614
C            3.90715474638300        7.34202208915841       -2.69932478349269
C            3.90595996715591        8.32069319695179       -3.69751115748621
C            4.48514949454859        8.11358552203149       -4.93965631046822
C            4.44676118298613        9.17018981004065       -5.97635142858051
C            5.54049186079760        9.39654240509528       -6.81153331119408
C            5.50003690575425       10.37839905243843       -7.77800080050126
C            4.36816557650198       11.15405053920734       -7.93103364744730
C            3.27530516215432       10.94521889653398       -7.11368194778511
C            3.31263888489776        9.96427634848885       -6.14631532743690
C            5.09552228302338        6.87854044717747       -5.19469296332118
C            5.11344269987299        5.89979980017510       -4.24170862135670
C            4.52668892589406        6.10160496618382       -2.98733610724301
C            4.51789238810007        5.07856120191322       -1.97711445529368
N            5.02067281201047        3.78963694957553       -1.95020632498768
C            5.73271826077129        3.12791036236509       -3.01843425134544
C            7.10119478452127        3.29894029223174       -3.16321143770103
C            7.77940966675471        2.66322845850997       -4.17868416883620
C            7.11882370134643        1.83962153195998       -5.08194208935352
C            7.91474702916678        1.14409780716827       -6.19749746245315
C            8.57615926471434        2.21001675567874       -7.09093137051476
C            8.99887980991583        0.24919184149404       -5.56778525368125
C            7.01134296902336        0.26167869836818       -7.08099104616852
C            5.74576292888157        1.67981340715583       -4.93181678685696
C            5.06209300396875        2.31261218491592       -3.91716207334032
C            4.30808027683042        1.46529232392763        0.94740941760338
C            4.54239890939118        0.19730159101609        1.43044979732119
H            4.44420042712370       -3.86800291397079        1.68414719759147
H            3.93203734254080       -2.90589364165850        0.29762852750265
H            3.56108856460123       -2.36514352500698        1.93237331325363
H            6.33908878629682       -2.97771911426055        3.21636406239743
H            5.42847033085841       -1.48970814237267        3.44681422620818
H            7.08550728309157       -1.42199741855349        2.85248792376681
H            6.83508173279945       -3.86118268261685        0.94031608644689
H            7.65392842381727       -2.35931510197954        0.53174470717864
H            6.36207477849491       -2.98054373528798       -0.50582191624224
H            6.77069906180031       -0.83567055457906       -0.86237047661712
H            6.35857327920612        1.39893153572397       -1.71023039907859
H            2.65896590675930        5.94459208604024        1.53298526087927
H            1.61116829114084        8.09696406731471        2.07125685225097
H            2.15267365628590       10.31100874259496        2.54466459673241
H            1.13625462754529       12.47719952324102        3.09172047207449
H           -0.09632216010479       13.72814579739057        1.37193670991956
H           -0.32233000266370       12.80097467331052       -0.89385259118091
H            0.66856573036856       10.62229436477224       -1.43553346771759
H            2.70098279791634        9.59965392357948       -1.74649699360916
H            3.44816972093835        9.27246594964140       -3.50895019019128
H            6.42846975305369        8.80138858010755       -6.68527189841548
H            6.35419316616657       10.54214923433164       -8.41485651020082
H            4.33733384549324       11.92104741395553       -8.68785541042844
H            2.39023898786019       11.54876392246078       -7.23374530136251
H            2.45359425362036        9.79319978062248       -5.52059496196448
H            5.53690867947782        6.70089307237457       -6.16019567584889
H            5.57757383900907        4.95521746701052       -4.45471738658144
H            7.62170404310571        3.93412313191887       -2.46763004082933
H            8.84165482741771        2.80677596081057       -4.27438412096524
H            9.26728317264290        2.83041296416767       -6.52200412970123
H            7.82373865295314        2.86412324054769       -7.53070619685620
H            9.13611680407579        1.74598130176319       -7.90243507874124
H            9.70523902834087        0.83463396886009       -4.98088201142685
H            9.56290198142542       -0.27903385710160       -6.33608061696739
H            8.54993316955451       -0.49319214421494       -4.90844060630222
H            6.23886509280084        0.85528672402293       -7.56899223520587
H            6.52992241396476       -0.51927016807621       -6.49305978350037
H            7.59350429434366       -0.22636193706062       -7.86235641581424
H            5.20089180456197        1.05147103271873       -5.61353144746204
H            3.99986555515742        2.18134296912329       -3.80486233286612
H            3.61830626713643        2.11939620036814        1.45164187214168
H            4.02553385914693       -0.13576824852044        2.31365917525130
