52
 energy: -12.021219922383 gnorm: 0.000618114960 xtb: 6.5.0 (97a52f5)
N            2.30988882457835        0.23834919555999        0.11512540434502
C            0.93607428880237        0.14778464241695        0.07591526046806
C            0.27496145759655       -0.98740378500812        0.55777355609344
C           -1.09115565264021       -1.07370759662469        0.51178606330170
C           -1.86971141404872       -0.04247615365382       -0.01551354303869
N           -3.29247794066872       -0.14081713017862       -0.06092881156929
C           -4.00794336555478        0.52175907937868       -1.08760038968429
O           -3.44329121882946        1.18347106595411       -1.93970776271236
C           -5.46658314065165        0.39844599960190       -1.13121807001640
C           -6.18684478751381        1.02880609995140       -2.12406003863718
C           -7.55973848262331        0.91972487748977       -2.19038273935457
C           -8.28087253372034        0.17054027097477       -1.26167290671829
C           -9.72594523979450        0.04501548405327       -1.32103437354491
C          -10.48433695481147        0.66402965812886       -2.31395517718782
C          -11.85621726581963        0.53896208123143       -2.36233804068610
C          -12.53624073041328       -0.20821135963903       -1.42461279719501
C          -11.81404753773698       -0.85728404818487       -0.39626229176451
C          -12.49405915201270       -1.62884436163751        0.57475987159501
C          -11.77366601981583       -2.25500434227784        1.56910563839221
C          -10.40152689043806       -2.14150074674176        1.63216647990906
C           -9.68391724823511       -1.39278769428019        0.70019123956499
C           -8.23905966757034       -1.26794211294593        0.75856552263164
C           -7.47907659352447       -1.88681438624333        1.75000443723280
C           -6.10679744584184       -1.76335808542119        1.79304009633312
C           -5.42663016143541       -1.01851129334541        0.85285706205788
C           -6.15134611401254       -0.36998735292600       -0.16771652792717
C           -7.56456119045802       -0.48977347666315       -0.22401447059808
C           -3.96885510341886       -0.90295782337390        0.92181321275218
O           -3.37281257586606       -1.45960726873926        1.82610429393310
C          -10.40084491903844       -0.73420247980602       -0.33876960105927
C          -13.95217617596636       -1.75824397792339        0.52045212034192
O          -14.55860216551979       -2.41620253771612        1.34792166651161
N          -14.60747794827216       -1.10024670069980       -0.50958353401706
C          -13.99463020129009       -0.33179685987304       -1.48808320254767
O          -14.63718420375006        0.21896605228203       -2.36507081763309
C           -1.20513547797439        1.08666171231069       -0.49583804077226
C            0.16035114465606        1.18619729347910       -0.45171808828793
H            2.90178822501047       -0.49265213499636        0.46683244065968
H            2.82110680815778        1.02471396189902       -0.24335311060901
H            0.85704721011078       -1.79240330547155        0.97051365037030
H           -1.59113989935826       -1.94285332911194        0.90228335505534
H           -5.64858437317667        1.61070456617729       -2.85354948409289
H           -8.07428744750230        1.42957302620345       -2.98341573878833
H           -9.99952012020392        1.25635093963050       -3.06754516246905
H          -12.42314748964415        1.02556123088252       -3.13825159769762
H          -12.30891610495705       -2.83816495423886        2.29963079728356
H           -9.88411644902133       -2.64850717446542        2.42520838366537
H           -7.96194446868046       -2.47718620756106        2.50620374312298
H           -5.53772147264111       -2.24940741954433        2.56785460730247
H          -15.60709959039943       -1.18705245473410       -0.54987853228163
H           -1.79176695839091        1.88167920300502       -0.92196663061413
H            0.65392193432762        2.06457211341298       -0.82859742141809
