60
 energy: -14.939891229668 gnorm: 0.000599423687 xtb: 6.5.0 (97a52f5)
N            0.93882976642104       -0.07995574864427        0.18774152298295
C            2.31587704388163       -0.11718138300577        0.07156009359066
C            2.98207773541417        1.10911949541761       -0.08499041927198
C            4.33851896482506        1.16436809200382       -0.18101428543107
C            5.11585772288061        0.00130193838280       -0.11732848558156
C            6.53825734086950        0.07477653891247       -0.21474443592997
C            7.21911142076300        1.37814867846032       -0.30526208198316
C            7.07420070708670        2.32086400278335        0.73569050118448
C            7.74274768386509        3.51101743923319        0.71984341338792
C            8.59596854442819        3.84305007161093       -0.33523582619840
C            9.29951624962941        5.12959798711847       -0.29966337823772
O            9.25030331752477        5.82882807690019        0.68944600934514
C           10.09574246007930        5.56850602143837       -1.49566455930993
N           10.29881830099715        7.00232421181064       -1.50427754504718
C           11.47017461941959        7.59764642852578       -1.02811429473082
O           12.47124364378730        7.02535677480496       -0.66594454287828
C           11.24860690555791        9.08749378872180       -1.05312235544991
C            9.78811891435656        9.28125858225911       -1.50970924636297
C            9.27422283948205        7.89934818190800       -1.81902637799452
O            8.18488718239288        7.62057117527887       -2.26230533100541
C            8.74474465835123        2.93124287862225       -1.37815444814341
C            8.07217414183614        1.72844582316806       -1.39277364432831
C            8.24130401460001        0.84142945063560       -2.59187188571228
O            9.36136720602468        0.83638022156516       -3.12151774502917
O            7.25899415965339        0.19358296443497       -2.97731605056525
C            7.28366898797649       -1.14335973063855       -0.18104300931375
C            8.68314668664291       -1.12280783504750       -0.22306255488593
C            9.40507364457438       -2.27594657190507       -0.19758808220842
C            8.77073391102736       -3.52624287115199       -0.11755411383905
N            9.57833738588577       -4.64835261672368       -0.11961835688969
C            7.37023843621027       -3.57192084831471       -0.04279946481839
S            6.49553246027150       -5.16989885330484        0.07901309572648
O            5.61277981624996       -5.06869717803203        1.27705679816769
O            5.83850405844406       -5.33050560694319       -1.25071010401770
O            7.50965836163602       -6.23993625238856        0.29296157791120
C            6.61495289044114       -2.39428348105637       -0.06650384988708
O            5.22558509680163       -2.42591805263543        0.02855525341572
C            4.46591223877007       -1.25862332969097        0.00758630048999
C            3.07069610639880       -1.29953888083229        0.10558201697015
S            2.25241289833544       -2.92117540582278        0.29132383493147
O            2.74885428972885       -3.77639375748391       -0.82523521409899
O            2.59368855196072       -3.33854539582784        1.68240510659029
O            0.78365705452183       -2.71812031209467        0.14800773196176
H            0.39208645537971        0.75359558014856        0.06843977368634
H            0.38764666076742       -0.92143905962546        0.20138069147442
H            2.39971156349894        2.01269753526318       -0.12609582071411
H            4.82354461686035        2.11414450681332       -0.32186237534671
H            6.44560433973425        2.06882096505494        1.57321826464716
H            7.63168547599716        4.21475727640915        1.52705875150142
H            9.57909187502602        5.30227375170083       -2.42096463169091
H           11.07543654507968        5.08272799864430       -1.49656176885433
H           11.95777214105795        9.55215669655581       -1.74638741197842
H           11.43648770264775        9.51145581622423       -0.06095887346759
H            9.70686357827759        9.92094680476987       -2.39492602022165
H            9.17252641462373        9.73146326606046       -0.72365048135178
H            9.40005229096444        3.15357827810767       -2.20010207660915
H            9.19326967159350       -0.17764478224879       -0.28289330658832
H           10.47922270700403       -2.24250157087558       -0.24658849877285
H           10.58005839976394       -4.61289395822557       -0.06188435679908
H            9.20098114171445       -5.56831381723610        0.03260657358480
