24
 energy: -5.214704657627 gnorm: 0.000617015268 xtb: 6.5.0 (97a52f5)
N            1.08668776065503       -0.05501227258872        0.03118385847523
C            2.46546501567066       -0.07941399724838        0.04670679622983
C            3.20090477469086        1.12201560714105        0.05932207522647
C            4.57499113227477        1.12281823177783        0.07896216761336
C            5.24454397180117       -0.09171288373681        0.08537063545351
C            4.53367952137530       -1.30097049006572        0.06969401672259
C            3.15388193487286       -1.30006462596664        0.05081660257394
C            5.49931269461515       -2.40171199357426        0.08656316601899
C            5.32508013538254       -3.77708899420870        0.08045008826566
C            6.44271344679370       -4.58805280466259        0.10537642197484
C            7.71851573828282       -4.04169787380723        0.13640598769810
C            7.90143653561923       -2.67307897614896        0.14223162506009
C            6.78673562930185       -1.85512891081430        0.11660583537831
C            6.68241398808548       -0.38385567459566        0.11657710143654
O            7.59587319305064        0.41687686964012        0.13686437753726
H            0.55747926736677        0.78984423617990        0.15758993659958
H            0.52869868726291       -0.88231930596973        0.14852712329521
H            2.66325900528571        2.05343260776296        0.05298183168068
H            5.13719254986008        2.03999845402510        0.09036976446709
H            2.61140098950219       -2.22617977384047        0.03957752941691
H            4.33367222495761       -4.19350703393868        0.05659234851576
H            6.32257751821400       -5.65880434852063        0.10078351028628
H            8.57674927960176       -4.69289347373730        0.15627752249580
H            8.88404500547689       -2.23567257310216        0.16653967757798
