42
 energy: -7.796907186254 gnorm: 0.000682486705 xtb: 6.5.0 (97a52f5)
N            1.22372160743538       -0.52251440732432       -0.00859766090554
C            2.57608518686030       -0.24474305016813       -0.00461325423718
C            3.52107865109802       -1.28932369018726       -0.01157646472132
C            4.87198769376783       -1.03569890639931       -0.00791385205309
C            5.30262101528667        0.28284021778151        0.00344068609819
C            4.38201533416709        1.32873344723958        0.01076089648217
C            3.02759769993235        1.08077093473199        0.00757066758913
C            5.12561305372251        2.59679373481015        0.02807743538055
O            4.64892545593716        3.71479833920775        0.03136522744117
N            6.48380994164155        2.24818585821300        0.03822265382094
C            7.56030745587441        3.27422692629038        0.05996904271689
C            7.44848786322057        4.16045369587079       -1.20892673141016
C            8.53430954568920        5.26514330604537       -1.19108396078797
C            8.34728037173484        6.14932837635923        0.06902209917589
C            8.47669709025948        5.27328808452538        1.34205602260512
C            7.39123091485861        4.16857653930857        1.31709891941217
C            9.87958952664131        4.61426822608506        1.37518884098809
C           10.06524069084433        3.72862226869561        0.11622944567289
C            8.97181213403615        2.63200516661731        0.09464182107239
C            9.93727735191545        4.60606558106680       -1.15565910911194
C            6.65398731881014        0.85160775669253        0.02141561687457
O            7.69033982588612        0.21376620260744        0.02314393506975
H            0.86013298697443       -1.44985512445043       -0.14131213828298
H            0.52501884359250        0.18989002416446       -0.12642126655577
H            3.16505766653959       -2.30407273705652       -0.01752603940226
H            5.59503943361425       -1.83224822570362       -0.01082015300021
H            2.32977468133244        1.89648213356939        0.01726361029798
H            6.44773397345257        4.60103402830306       -1.24965138403807
H            7.54821717625700        3.53135504666171       -2.09848197981458
H            8.44115512692116        5.88849085832106       -2.09766445811128
H            7.36674278199205        6.63738587157814        0.04513742396324
H            9.09498840048166        6.94983832310271        0.08340252994494
H            8.34221553071669        5.90242876478975        2.23940569415094
H            6.39004909053334        4.60979749232677        1.30921460966947
H            7.44956200678047        3.54514087143563        2.21421793588788
H            9.99180909429903        4.01030675637845        2.28231733131607
H           10.65816843006650        5.38397689826230        1.41374401393711
H           11.06221731811778        3.25488579130874        0.14056468806440
H            9.05063671880879        1.98506231182368        0.97340188878803
H            9.09106255325684        1.98007765543026       -0.77586810334628
H           10.09080028226074        3.99614908659020       -2.05269522666523
H           10.71692217438115        5.37562956509535       -1.16360125397494
