29
 energy: -6.094148043481 gnorm: 0.000625439580 xtb: 6.5.0 (97a52f5)
N            1.26550603537516       -0.29790195912210       -0.02299080977106
C            2.63875372782949       -0.15941606203548       -0.03675797592361
C            3.46274658748188       -1.23028842671663       -0.44058128974527
C            4.82979963406509       -1.11444634814684       -0.46956397562799
C            5.40888220218550        0.09527789037194       -0.08836069398437
C            4.60660917160090        1.15530042836345        0.31346582933241
C            3.23258899097414        1.04637902605461        0.34451717628460
C            5.49829566771313        2.28016314685894        0.64660305168979
O            5.10934091403325        3.36489872146962        1.03450727715182
O            6.79665376891760        1.87075446242075        0.43941113757579
C            6.78802612584149        0.55175813600123       -0.00935109105434
C            7.87913362338897       -0.20204735842039       -0.32868820077565
C            9.23728626198672        0.25559713475693       -0.25697829200794
C            9.56065232682138        1.54514622899748        0.18268398887316
C           10.86517418703908        1.96716277866051        0.24200990797799
C           11.88760974901865        1.11178963383604       -0.13874820890437
Cl          13.52720353548382        1.64265070036705       -0.06990576331364
C           11.59125586063756       -0.16988869408828       -0.57744553836316
C           10.28640144109792       -0.59394270114134       -0.63575802148973
H            0.79385568554797       -1.14303857300821       -0.29113396690839
H            0.63951330905090        0.43813823398577        0.25136229304531
H            2.99614845159250       -2.15457818161131       -0.73123851921572
H            5.45040965501910       -1.93619068227893       -0.77976414947794
H            2.63243899081533        1.88066002786809        0.65533835849230
H            7.71449509260342       -1.20918788231291       -0.66356930182700
H            8.76574710335804        2.20711166891764        0.47499922345274
H           11.11191155360225        2.95880443129338        0.58159003212653
H           12.39775875416982       -0.82060157023526       -0.87038977663881
H           10.05825159275175       -1.58859421110133       -0.97804270097657
