28
 energy: -4.556347749719 gnorm: 0.004588182125 xtb: 6.5.0 (97a52f5)
C            0.82217069016532       -2.72936613514047        0.57997992641363
C            1.90957406788404       -2.20017498701963        0.48057216159517
C            3.14211518814908       -1.61816925164060        0.34792035682372
C            4.18827687625060       -1.93412918615601       -0.47209607738294
C            5.41113417894546       -1.31884434276033       -0.55183381938686
C            5.97118060916009       -0.13463082485691        0.05424155015273
C            7.39628142456764       -0.07556199930764       -0.01825759851089
C            8.27684446851478        0.64599444882133        0.70542053460463
C            8.12808417656643        1.40880640748031        1.82491865183995
C            9.12631477237849        2.06257194109219        2.50439121559684
C            9.86889111365957        8.17247155492571       -3.14258665727501
C            8.69530002659500        8.39675462003768       -2.57440300898161
C            7.95475271640207        7.59327813068322       -2.01306904816635
C            3.21216291000578        2.97394461167606        1.48013402755065
C            2.96375040809446        1.77147413990643        1.10090450068763
C            3.83135300824602        0.87330863410675        0.70196028959026
C            5.19103090548551        0.97195792604760        0.55720969956210
C            5.75902180791238        2.17480903919916        0.75031635815442
H           -0.13254189082462       -3.19550177175857        0.66632366533410
H            4.03978314943354       -2.80997540720743       -1.08444468528253
H            6.11963782398586       -1.84540099475856       -1.17599274641550
H            7.85769262813644       -0.77160958710364       -0.70225046075356
H           12.63479986068788       -1.33078685846287       -1.93702251565832
H            9.82394614894362        1.40276935849758        2.93085306257166
H           11.70961148777293        5.30990293902295        0.25767433679456
H            1.47641673055347        8.89089761636587        0.54447444667356
H            7.26489376662411        6.23379733441572       -1.41888293822265
H            3.89489094540959        4.47337264571006        1.60887476987246
