91
 energy: -10.090087610792 gnorm: 0.004477828314 xtb: 6.5.0 (97a52f5)
C            1.74999010772102        1.64989785175217       -0.50259243208338
C            1.53614937392540        0.37457782906110       -1.14840113714494
C            0.10449981750800        0.22161945627475       -1.50005110550716
C            2.35236226626811        0.30056817059803       -2.38468567698087
C            1.94860369475450       -0.72841015972327       -0.23830137653543
C            1.47549774008098       -0.98021534694453        0.96522401127659
C            1.84403573943060       -1.95248042255146        1.77646957930966
C            2.76229778263812       -2.87633656590339        1.54625056995295
C            3.14753565112674       -3.86672051879641        2.42017144230368
N            2.71747826679892       -4.05872414646502        3.61088342443390
C            3.32325631173628       -5.08889187448908        4.14977967706052
C            3.15940318245259       -5.56546835961468        5.41649904124243
C            2.33503782063059       -5.08255660461997        6.34102900436894
C            2.17431492627042       -5.48463033449100        7.57947621034847
C            2.78495694298086       -6.46709578855892        8.24392423131990
C            3.73417887587675       -7.37203563601750        7.79753256949634
C            3.57773847567353       -8.30326181040222        6.86658727659128
C            4.47729254972410       -9.16088028308855        6.41813808288916
C            5.74330679021476       -9.27367762628036        6.78573767365686
C            6.64351870336159      -10.14117617017317        6.34625989624838
C            6.48696475478282      -11.06691203221767        5.47131939706170
C            4.80842199037465      -10.35146247282848        1.28887228758347
C            5.92613262485426      -10.04487038718086        1.84930191375257
C            6.63438035376285       -8.86542367163269        1.78263904518031
N            6.30323151153757       -7.63580743451954        1.49313321747181
C            5.14830991167593       -7.07108022234146        1.33071155961896
C            3.85863896787886       -7.54627966149610        1.51882083193291
C            2.74948492249654       -7.12263293507608        0.92535074528380
C            2.65318193291990       -6.18593402223641        0.00225641931949
C            1.56396106753166       -5.74346466662770       -0.60745195357979
C            0.28213490463783       -6.13589839620222       -0.43518993916336
C           -0.74156286013135       -5.60484664706325       -1.11899079051298
C           -1.35296236758932       -6.88884726952780       -5.15474654657953
N           -1.96884174424726       -7.06425334445861       -6.25427441073390
C           -3.12830055503349       -6.56306305363532       -6.60325090171991
C           -3.81480327061744       -6.72732520340232       -7.76484183461849
C           -4.97520568490142       -6.20234798804490       -8.06143637106107
C           -5.64878432509127       -5.33336229220369       -7.28589836049263
C           -5.26277428079175       -4.11382266647245       -6.95492368308962
C           -4.19559037105648       -3.51190376784878       -7.32523492713426
C            1.85758498579427       -6.75496048112146       -9.28644872351220
C            1.73680917851609       -6.36382155916868      -10.66304586451344
C            0.69739015641583       -5.41892423396902      -10.93884957617581
C            3.00415842703026       -6.12300292726782      -11.35844301419293
C            0.82325446269008      -13.58536168211435       -8.09087906204583
C            2.50893641120949       -7.80363254061331       -8.82213151460844
C            2.60946501357013       -8.16332204965291       -7.59703674580921
C            3.91659708942271       -8.06273358190811       -3.00007570607111
C            5.14030646225998       -7.90480636873434       -3.18283221482163
C            5.13192486908512       -4.24845150514110       -0.28235842229483
C            5.68897533800937       -2.94821418286118        4.07233181316252
C            4.04151041418595       -2.24478182300428        5.37955271329336
H           -1.44641402360210        4.23091152702122       -3.01665504573611
H           -1.28532664024170       -2.07684295624284        4.90960612759260
H           -0.51936731955027        0.23656414603072       -0.65487237840128
H            2.19639640877453        4.02237710587783       -4.96001679204395
H            0.84920327165478       -3.40727899776737       -6.55773275564697
H            2.23410138087437       -0.61270050269349       -2.89045050094389
H            2.39987031433887        6.22313147633167       -0.37873975020185
H            7.73233295479154        3.04374059158378       -0.08721566337260
H            1.78590147357238        1.05484702002470        3.08153179906962
H            1.34713758818868       -3.11535492107720       -1.53794778622149
H           -0.29964038360095       -3.53232498462138        0.95060551885951
H           -2.21689130390148       -5.64386969510536        5.96899165058147
H            0.75608466730243       -1.15589720079011        8.35638887686564
H            4.48124658927608       -2.18736582868986        9.88220708856053
H            7.14140968946882       -5.32228889089898       10.75785793206858
H            4.93101059228795       -9.43404767665731       10.01821230424159
H            7.07929128825880      -13.13071996370641        9.75783954894956
H           10.26203323474279      -12.14712859266184        2.92664980135786
H            8.60484834037780      -10.74804475739898       -1.91084860111771
H            2.18794453060695       -8.29126776200307        4.35554582665898
H            0.08263447349869       -6.91158891377830        0.28764874749657
H           -1.74421272487819       -5.90106613425665       -1.00669404311822
H           -1.70158325247085       -6.28671958699110       -4.36591884025826
H           -1.22095007647567       -9.94643109207827      -10.05502417096009
H           -5.39276027684209       -7.31823271885936       -9.64427401302436
H           -8.38002121533120       -9.29680846642954       -7.29954768787382
H           -6.00858154228577       -1.34045753145988       -3.43878310870294
H           -1.93450876524386       -2.15746524247209       -3.77897261532754
H           -0.23795751350814       -5.73571624344382      -10.57943617108723
H            2.87206091510216       -6.02840635400824      -12.41751793087651
H            3.51439912070003       -5.25945048306851      -10.98151155285959
H            5.22381017546186      -10.99520983392954      -10.55817311671989
H            0.64618252602930      -13.58053266722584       -7.08137955594760
H            4.40648001698747       -5.04992579544529       -7.99547018814015
H            7.29119561089560       -8.95181418825305       -7.23596761185649
H            5.87739237106936       -2.23177077396415       -4.41838137874898
H            8.22160293919618       -0.98672523819125        0.66211255921660
H            5.72052179244722       -5.44214419991168        6.65321922233534
H            5.97411739965417        1.54910573006359        3.67494388040686
