24
 energy: -5.213173109234 gnorm: 0.000868409561 xtb: 6.5.0 (97a52f5)
N            1.17614017735669        0.02527394481426        0.07846447840411
C            2.55652304693899        0.01241461458199        0.07457918686341
C            3.26097051940620       -1.20676728377453        0.07117986575223
C            4.63544681352250       -1.24448781981598        0.05980100298304
C            5.34131369899962       -0.04659899503732        0.05340261747271
C            4.65267247125697        1.17502855851186        0.06247501441303
C            3.27682472210903        1.21374984504404        0.07173822860285
C            5.63303835985517        2.27634352414275        0.04826481151162
O            5.39966148531835        3.46687757171953        0.04959579453331
C            6.95273616734425        1.62242968957274        0.02900963873042
C            8.22228864564653        2.17078098073022        0.01003314491145
C            9.31044349751607        1.32127767468499       -0.00633503707164
C            9.13738075332967       -0.05701755882434       -0.00309037752120
C            7.87396221423841       -0.61227252595738        0.01633259263994
C            6.77272806936528        0.23307928080130        0.03185105809830
H            0.62908472922377       -0.80501485601670       -0.06776795591384
H            0.64555886730525        0.86646918143207       -0.06609879957902
H            2.69914006061604       -2.12376159849233        0.07866861758474
H            5.16712764399556       -2.17949543724239        0.05626462658048
H            2.76544802001982        2.15774969910176        0.07812892071795
H            8.34200067540060        3.23995330372375        0.00781228159042
H           10.30606319814499        1.73303407712669       -0.02257983135151
H           10.00090516621540       -0.70129375096927       -0.01617231788793
H            7.73300099687486       -1.67859211985773        0.01902243793511
