25
 energy: -5.186305732904 gnorm: 0.000771038178 xtb: 6.5.0 (97a52f5)
N            1.07091078718677        0.08203739136755        0.13224639035033
C            2.45688344081233        0.08512245687337        0.12144128760530
C            3.17354386192371       -1.12468649269430        0.10839970373679
C            4.54800995157575       -1.14527969038140        0.08176119040676
C            5.23987860884188        0.06209540343618        0.06908510061962
C            4.54078504008846        1.27732953374217        0.08635336680332
C            3.16626220308678        1.29579837546180        0.11306162884677
C            5.53546241180904        2.40998550082624        0.07051371297429
C            6.87891434510298        1.72640348977002        0.04793981144360
C            8.15538283882242        2.25156782669373        0.03362216557725
C            9.23488848262561        1.38526928476115        0.01686088743824
C            9.04260129051191        0.01167262158814        0.01544065047849
C            7.77036956001036       -0.52325896430603        0.03104018022150
C            6.68140230681029        0.34018758089389        0.04720032611382
H            0.55231660595414       -0.74902011512762       -0.09644242244865
H            0.54931444182511        0.91253023555484       -0.09135631476286
H            2.62271149970844       -2.04871894862730        0.11984454655297
H            5.09058682938508       -2.07414725108790        0.07020409147479
H            2.63789586891973        2.23081817695355        0.12569148946912
H            5.42913261476115        3.03969563334902        0.96045108387885
H            5.40001884325690        3.04010241605572       -0.81519252775359
H            8.29640898988696        3.31838231774542        0.03540016522066
H           10.23637896152769        1.78339069312943        0.00499545517975
H            9.89636544606329       -0.64608368729026        0.00223243951355
H            7.61273476950320       -1.58747378868739        0.03076559105936
