30
 energy: -6.608721049195 gnorm: 0.000932140515 xtb: 6.5.0 (97a52f5)
N            1.03388713784341        0.01936895769446       -0.08378432931511
C            2.39845755847446        0.03951100853758       -0.08383205137737
C            3.06891794767241        1.26208514047216       -0.08371817502622
C            4.44191366474263        1.33640676466175       -0.08377116259728
C            5.24198265996863        0.19522612433440       -0.08393528482590
C            4.59876648015510       -1.07703302901968       -0.08414882951260
C            5.36103908156499       -2.27511416572396       -0.08448973118390
C            4.72167396759923       -3.49559338476896       -0.08459900007043
C            3.33894667325680       -3.57578207074625       -0.08439860982233
C            2.58217606904500       -2.43410537817578       -0.08413391579865
C            3.18067996625096       -1.16568431223836       -0.08403799943421
C            6.82502709671763       -2.22771868489559       -0.08469763312553
O            7.48903002540664       -3.25246336482002       -0.08502254502388
C            7.46707148830981       -0.90895269339702       -0.08444157934647
C            8.85480829468397       -0.83462329644966       -0.08457140138399
C            9.49813769996603        0.37787091262591       -0.08416334241846
C            8.75767337248242        1.54604814642564       -0.08362331076491
C            7.38526625223885        1.49527360901311       -0.08349775422377
C            6.69981461035238        0.27325656950663       -0.08393911944729
H            0.47448698314731        0.85474939190420       -0.08396192894388
H            0.46529801483173       -0.80957377407690       -0.08430484930629
H            2.48406234336095        2.16486939761804       -0.08360196558671
H            4.90113296844929        2.30747349824171       -0.08372368700367
H            5.31979799075888       -4.39045749213051       -0.08483100975299
H            2.85914030156705       -4.54067922780512       -0.08445450129482
H            1.51126405660341       -2.51399708752176       -0.08397068539878
H            9.41731246003019       -1.75233359472565       -0.08493560515896
H           10.57491044859612        0.41992048371945       -0.08425571255006
H            9.26148429659948        2.49867032697523       -0.08328181021085
H            6.83511008932424        2.41785122476497       -0.08297247009473
