34
 energy: -7.516519530694 gnorm: 0.000357463976 xtb: 6.5.0 (97a52f5)
N            0.73194246620662       -0.75699923151188       -0.09601944100286
C            2.04627532052067       -0.38601900693489       -0.07439181531498
C            2.38136971833301        0.96426250491549       -0.16872794180753
C            3.68884100828210        1.38590369258004       -0.15047924308084
C            4.75340761122492        0.48983602300922       -0.03676792510345
C            6.13651014521745        0.94190301921345       -0.01978426632387
C            6.47845326695760        2.28614771704246       -0.11515509062334
C            7.80175372054666        2.70704399146669       -0.09864250671389
C            8.81656051783072        1.80050369848842        0.01436239878070
C            8.53627882838030        0.42315310631947        0.11555637037247
C            9.57233857641398       -0.52475311292776        0.23352779084900
C            9.28468083442535       -1.85537011816567        0.33101594364821
C            7.96645759268263       -2.29481801456107        0.31514744878021
C            6.90293420327089       -1.40995921310208        0.20025849008215
C            5.51290736964953       -1.86087235797076        0.18027392903886
C            5.17942089243645       -3.20547106755405        0.27096460483166
C            3.86094518863054       -3.62741033138524        0.25113170713196
C            2.84375555865925       -2.71824500037230        0.14024437201373
C            3.10970268028373       -1.34590356176639        0.04467036597589
C            4.46209162412442       -0.90296733881229        0.06309231234690
C            7.18648632987445       -0.01738856507503        0.09875649351799
H           -0.02221721668889       -0.09351544802145       -0.15390228307709
H            0.39261747402844       -1.69816368135637        0.00680011846329
H            1.58648928155401        1.68416183154868       -0.25645793642417
H            3.88513129651581        2.43940134663714       -0.22639495741688
H            5.70887700617201        3.03022943696940       -0.20465774004504
H            8.02840308915284        3.75807863872487       -0.17547116055400
H            9.84162199330785        2.12896065812608        0.02695893410668
H           10.59395026023503       -0.18568448601932        0.24577260960875
H           10.08508438758003       -2.57172975307160        0.42114584858220
H            7.78025787949844       -3.34981782072498        0.39515165470005
H            5.95239296329881       -3.94654124308843        0.35750998558930
H            3.63507390052313       -4.67902050824772        0.32338348677425
H            1.82713423087116       -3.06514580437213        0.12435744229381
