32
 energy: -6.569026939236 gnorm: 0.000478000878 xtb: 6.5.0 (97a52f5)
N            1.02140049803043        0.05292774572859        0.02412421954713
C            2.39847524943096        0.06736372401357        0.14437484413160
C            3.07779571261304        1.23738690770851        0.52474966638820
C            4.43892298592268        1.24983453193459        0.64560352717395
C            5.19077501933910        0.09025052928431        0.39222659923892
C            6.60071789256008        0.05519297838529        0.50783349243704
C            7.29254885674216       -1.09078552549530        0.25276263222053
C            8.75652541930777       -1.16333307372629        0.36149050622231
C            9.40657904772810       -2.26773321017704       -0.17902510319984
C           10.77509286703006       -2.38823204076560       -0.11025113005440
C           11.52656948132525       -1.41080860166969        0.50953423611885
C           13.04253187560262       -1.53545013411229        0.56387716059323
F           13.36516396915748       -2.82395695924583        0.76516993361652
F           13.54679407080287       -1.11065134176035       -0.60632075069681
F           13.51007191823651       -0.77892295697357        1.57087285585022
C           10.89574435975176       -0.31185269167575        1.05742773874677
C            9.52709733942668       -0.18616931632052        0.99000336547756
O            6.66114669884256       -2.26320970587882       -0.13774238401728
C            5.29190936041471       -2.29640679445413       -0.26695833236393
O            4.68833704861217       -3.30218791190135       -0.60525835294968
C            4.52248153978398       -1.07995544647985        0.00952650621362
C            3.14358981280262       -1.07881715950656       -0.10828352248243
H            0.45134271184845        0.86896789719421        0.15232190916290
H            0.50549374091188       -0.74625418436097       -0.29597395560903
H            2.50818112831827        2.12896401029268        0.72042270781662
H            4.94890549885135        2.15215330591710        0.93735214023773
H            7.11653863641862        0.95614268635058        0.77998001605934
H            8.81172488572851       -3.03095741222629       -0.65419325172787
H           11.27752251950702       -3.24361464701358       -0.53196978601025
H           11.49533422953640        0.44081053334181        1.54330465068064
H            9.05353498383733        0.66662399149032        1.44391665870115
H            2.64941064157713       -1.98705972790120       -0.40158879752238
