26
 energy: -5.510502720748 gnorm: 0.000785718323 xtb: 6.5.0 (97a52f5)
N            1.08785426753384        0.02772730430598       -0.32461863038882
C            2.45648955778313        0.04719708701084       -0.13948422271922
C            3.18898561944509       -1.17182919134455       -0.05127605366451
C            4.52977225617084       -1.17466471807524        0.13742829780427
C            5.25581301303061        0.04642166924953        0.25216052651620
C            6.63109425943675        0.07069882174892        0.45129855257298
C            7.32798072294823        1.27666970386007        0.56474709445727
C            8.73119254866167        1.31738227368217        0.77594138813196
C            9.38396620674789        2.50524190880414        0.88217136292662
C            8.68087876225184        3.71974438603192        0.78545396134465
C            7.33670709645997        3.72728430825723        0.58586182815719
C            6.61335140263285        2.50914807613312        0.46983251236814
C            5.23400247026578        2.48574850259525        0.27039742237986
C            4.53727003800134        1.28023925338511        0.16181164413368
C            3.13897525610385        1.24207308867919       -0.03311661161472
H            0.58701592327768       -0.81555115083015       -0.54720798718063
H            0.56062532086444        0.85726226236208       -0.53788675783033
H            2.65019699696806       -2.09933358454659       -0.13413094280985
H            5.06811398584608       -2.10432711781306        0.20410719818663
H            7.17004177723039       -0.85678522194905        0.52057368180597
H            9.27223164983285        0.38996917854151        0.85268235295400
H           10.44961432749893        2.52114193680221        1.04399302784735
H            9.21730082257199        4.65048957626633        0.87144228435917
H            6.80129816775582        4.65827697722698        0.51352590698067
H            4.69574252806978        3.41353772446227        0.19982870238658
H            2.59335502261004        2.16504694515404       -0.09783653910533
