71
 energy: -14.008147393531 gnorm: 0.000683043579 xtb: 6.5.0 (97a52f5)
C            0.68931210763511       -1.11090642566356       -0.09890575553955
C            1.96176155232756       -0.32305183902731       -0.46182858566387
C            3.14564637514330       -1.29584274265861       -0.62059797915414
C            1.72964672693737        0.38097596768851       -1.81317410762599
C            2.27179979607976        0.68169409764967        0.65930548472209
C            2.54600867524509        0.22086477142743        1.94076760672891
C            2.81902554875070        1.09155851420535        2.97114291232663
C            2.82870760436874        2.46756901789786        2.76407328073887
C            3.09897031256913        3.42755983620235        3.83596013659692
N            2.85290280481304        4.72415659159739        3.71278032007940
C            3.23056048880376        5.29672920095946        4.87893422080922
C            3.16283482843618        6.68598094357722        5.26104722316564
C            2.64952764117145        7.64490877729526        4.38454935447099
C            2.58190440248846        8.96222763986447        4.75363400905516
C            3.02663781979499        9.35115130604306        6.00906127157640
C            3.53617708513795        8.42453888854723        6.88473181477830
C            3.62171183663482        7.06726411462486        6.54283745546962
C            4.16528269038652        6.05760045015203        7.45907830178205
C            4.64755601341122        6.39059130104540        8.73295515552991
C            5.16103277158393        5.43683804384067        9.57570075981309
C            5.21417743520462        4.10830161865646        9.18076485891448
C            4.75105400593421        3.74594040741965        7.94489806139279
C            4.22155697697710        4.69772531732688        7.06683470564072
C            3.73491911989934        4.33747356847963        5.76026083495103
N            3.64879561290540        3.12640951662243        5.09660782589183
C            4.08970499149266        1.84376085412151        5.59321984680514
C            3.26312470261827        1.07848195089476        6.40193751273167
C            3.68507170158313       -0.14632231101423        6.86813756944007
C            4.94117653304841       -0.64622098019297        6.54703876311077
C            5.36911121679152       -2.02314152096854        7.07850934918663
C            5.33432924207631       -2.00940775126783        8.61826631820787
C            4.40017886087775       -3.09565202398440        6.54666329991699
C            6.79651773545505       -2.39203488555277        6.62913424738399
C            5.76373092951034        0.13112757964766        5.73936167154559
C            5.34651647526406        1.35667687448028        5.26930159707386
C            2.54798304536293        2.93021390655363        1.48238720589664
C            2.27757865436659        2.05635852167780        0.45247902168301
H            0.43554623495418       -1.82424227336173       -0.88260207841816
H           -0.15693283946301       -0.43674733274146        0.03067788475449
H            0.81930332737057       -1.66677601590711        0.82870390378212
H            2.96233343089223       -2.00371724394175       -1.42857770063462
H            3.31404489349855       -1.86893866198216        0.29006107263309
H            4.06213262745841       -0.75277364172633       -0.84964584087138
H            1.52175466681745       -0.34693185829243       -2.59712840017211
H            2.60899892105433        0.94896504877071       -2.11566237832174
H            0.87876321990235        1.05963665768783       -1.76160707495726
H            2.54184179322105       -0.83822169015780        2.13227256932047
H            3.01841844813097        0.70473917049163        3.95211714550374
H            2.30753083223978        7.32917771937561        3.41441196777469
H            2.18284218845378        9.69514662190988        4.07136117535820
H            2.97088690598468       10.38861825315198        6.29663004968271
H            3.87347185868004        8.75438346283179        7.85030858923408
H            4.62002541112988        7.41282604344438        9.06331582269369
H            5.52676487751956        5.71971767780246       10.54956433247416
H            5.61965277836256        3.36369843285301        9.84651652816365
H            4.79309406189160        2.71790094074473        7.63762689608831
H            2.28835216710537        1.45753700567959        6.65577519450278
H            3.02845759275664       -0.72817540498595        7.49138515751311
H            4.32951999918324       -1.81544335986795        8.99093064861918
H            5.99247321043174       -1.23480769401563        9.01109709559601
H            5.66006388426920       -2.96689702012074        9.02390532666321
H            3.38070033209293       -2.90944799420130        6.88173133707648
H            4.68859330333915       -4.08792712934829        6.89253208450271
H            4.39762616517982       -3.10545825500522        5.45698752695327
H            7.52232531804372       -1.66532657938735        6.99306022160685
H            6.86629068375210       -2.43875696845281        5.54271849528941
H            7.08408872447808       -3.36819333305001        7.01910500822214
H            6.74261974056840       -0.22333655013338        5.46993984278229
H            5.98676858717814        1.95229791594877        4.64200273571543
H            2.54546111613050        3.99187700161618        1.30726768041816
H            2.06568121630653        2.45267795624059       -0.52453838894671
