20
 energy: -5.361088922946 gnorm: 0.000750502582 xtb: 6.5.0 (97a52f5)
N            1.01722701652085       -0.00623758518866        0.29510302017952
C            2.40988290481537       -0.02474069073534        0.20100094471705
C            3.11217198513231       -1.25614117562644        0.14065160350329
C            4.47368099868427       -1.29089887113633        0.03459672105606
C            5.22876072055260       -0.09749446407853       -0.01706563237328
C            6.64524497027445       -0.09973524163256       -0.12628962778401
C            7.34808970784510        1.06183927444462       -0.17364400124202
C            6.69466887271154        2.34541230225132       -0.11522292189169
O            7.35641009496057        3.41777005003575       -0.15940366650914
C            5.28680019632692        2.34350059354924       -0.00630546165609
C            4.54498066188045        1.15272070127421        0.04407171077355
C            3.13499710981714        1.15499276743131        0.15398768938964
H            0.49158633067531       -0.82286299331008        0.02242617224994
H            0.51340691552689        0.82659188854543        0.03028730783852
H            2.54661931435339       -2.17394187306806        0.17618974819121
H            4.99069007560871       -2.23697439861746       -0.01291661099165
H            7.15999458769396       -1.04706296107467       -0.17220873519433
H            8.42232741982904        1.04640000934817       -0.25781190535840
H            4.77438543736004        3.28817064350857        0.03921913117061
H            2.61220467943108        2.09534202407951        0.19666451393122
