28
 energy: -6.125861931710 gnorm: 0.000765315092 xtb: 6.5.0 (97a52f5)
N            1.15723032238107       -0.02064237994537        0.08055072574546
C            2.52716505613886       -0.03005414328893        0.08398025962688
C            3.20795413035797       -1.26114601895155        0.08529958423994
C            4.57333460123916       -1.33118086402188        0.08173440648533
C            5.35595284425222       -0.16570969438444        0.07673080254588
C            6.77867780003320       -0.21309663605947        0.07008269692298
C            7.52112716853350        0.92075617784142        0.06421713190931
C            6.90271479803887        2.20646729293290        0.06573955443305
C            7.64443666445321        3.39138298549261        0.05941107810668
C            7.01463513974163        4.61902559419006        0.06274722334380
C            5.63822308833118        4.70477611320601        0.07319585382313
C            4.84976857256998        3.54957435777698        0.07943318290171
C            3.42583689532409        3.59718209321480        0.09102369368449
C            2.68509928441633        2.46073832790217        0.09344789590086
C            3.28960233629885        1.17408049015473        0.08425162218022
C            4.70526770528598        1.09354603852931        0.07816423903513
C            5.48733757455310        2.28517993724175        0.07435667635432
H            0.60604740839142       -0.86006613591512        0.02318732853127
H            0.58768394225020        0.80508376665596        0.00279841890752
H            2.62560358558194       -2.16575839072377        0.08669941545906
H            5.06566262786053       -2.28843100989161        0.08052165929376
H            7.26187478740857       -1.17493843077037        0.06867473431076
H            8.59595690215260        0.86514790615651        0.05820225037415
H            8.71929616178009        3.33514346739964        0.05156497747045
H            7.60482050912323        5.52086736784183        0.05732489378974
H            5.15589861818464        5.66701447807896        0.07641844245199
H            2.94249798093370        4.55888883020329        0.09912086644122
H            1.61321349438387        2.53319847913362        0.10587038573089
