32
 energy: -5.663082579548 gnorm: 0.000857031075 xtb: 6.5.0 (97a52f5)
N            1.10253447092771       -0.02786493248321       -0.07381969709747
C            2.47330399044187       -0.02104811169178       -0.09275005400703
C            3.18980204598983        1.19637287834074       -0.10296845423094
C            4.54852776707106        1.20524811913906       -0.11176741164224
C            5.29149194486798        0.00650407486335       -0.11021070310040
N            6.63364877311512        0.06771844485931       -0.10606850423137
C            7.27653475285770       -1.09144702949000       -0.09821848570712
C            8.72092735475383       -1.08589929608574       -0.08265958576892
C            9.41607311004995        0.12721360597411       -0.07183830025114
C           10.78270760589722        0.15570345939767       -0.05215461180355
C           11.49914189456343       -1.03163553864969       -0.04308990983847
C           10.84356689739812       -2.23379527425125       -0.05411402828068
C            9.44586396939996       -2.29650465062859       -0.07422720824623
C            8.72579862465374       -3.55495997797833       -0.08444942982198
N            9.36995228050742       -4.75347547694597       -0.07939584372339
C            7.34192586647795       -3.52731422029038       -0.09756219464750
C            6.60318831096847       -2.34136278192207       -0.10206251151034
O            5.24409189162319       -2.41881364334418       -0.10843759808517
C            4.58411890288809       -1.22290560211870       -0.10672059389806
C            3.19116095926393       -1.20868522020515       -0.09878077297341
H            0.54647545417779        0.80635374634208       -0.04070930859730
H            0.55407568483980       -0.86705666380699       -0.04060938339933
H            2.64025049742926        2.12148952076381       -0.10423989855313
H            5.08905295555929        2.13636940154779       -0.11860534847079
H            8.85070682852346        1.04329207088795       -0.07823742889951
H           11.30444283258506        1.09930370761966       -0.04295937389749
H           12.57709652740682       -1.00586177760028       -0.02678659943019
H           11.41536891014585       -3.14316790323763       -0.04614183979178
H           10.36600577040545       -4.87758498566083       -0.06869119112443
H            8.88578634559174       -5.63309381209199       -0.08557266766471
H            6.79760964766206       -4.45266691143004       -0.10277723659816
H            2.67109713195669       -2.14784521982273       -0.09523382470771
