86
 energy: -18.675668468781 gnorm: 0.000729158882 xtb: 6.5.0 (97a52f5)
N            2.35296868065649        0.02513667467650       -0.14567892989516
C            0.96450457829917        0.01485369973909       -0.10962788046385
C            0.25427960472783       -1.19058693625587       -0.10501929907342
C           -1.12215942947241       -1.19439806574014       -0.06468573843290
C           -1.82108271410424       -0.00789966521752       -0.02795567114049
C           -1.14885860470893        1.22182598187129       -0.03282828791645
C           -1.89685782154328        2.50207362674983        0.01378041835116
C           -1.73642273172126        3.44204034216813       -1.04251136183685
N           -2.35102102485326        4.63912501236325       -1.18420815314015
C           -1.91194672172103        5.15088034013670       -2.35712836504983
C           -2.25987156101071        6.39876134833854       -2.94636676567020
C           -1.67023195183208        6.77291962433269       -4.25486592800246
C           -0.91524882263694        7.94490051929979       -4.39828411286075
C           -0.37373595417935        8.29114759549710       -5.61667499065008
C           -0.56930910142547        7.48881758408421       -6.71865158350242
C           -1.31938527778989        6.31182476031976       -6.61996156274660
N           -1.52548172261257        5.50225699763012       -7.72962821645866
C           -1.85832766992943        5.97154403008676       -5.38097080796793
C           -3.16103697433277        7.29375529426570       -2.32201692736085
C           -3.57115787573135        8.53585305815746       -2.86742681766445
C           -4.44766943296720        9.11371569110649       -1.99987011476209
C           -4.61948712392388        8.24157330287942       -0.89597787066679
N           -3.82098443194296        7.13912188894228       -1.12040568141906
C           -5.43765857607104        8.51435218962902        0.22620430313696
C           -6.20097210302990        9.78562198405096        0.26302267441353
C           -7.12694922659032       10.09971838774513       -0.74109674629428
C           -7.83281765245525       11.28210827136195       -0.70618113585540
C           -7.63736098238217       12.17926816181697        0.32001902763750
C           -6.72083490423422       11.90615459889316        1.34127574939851
N           -6.51885960939453       12.80789478767368        2.37795077385720
C           -6.01447109941678       10.70605505391176        1.29441027079032
C           -5.54487868913028        7.60465663743184        1.31572509497027
N           -4.95660606439605        6.39268491941660        1.44184282605035
C           -5.38413286480487        5.88722970684210        2.62209998172188
C           -5.03804268555383        4.63819637098387        3.21027382017283
C           -5.61892517900057        4.26653796436226        4.52297828011015
C           -4.79624697057089        3.95727213142949        5.61474507731008
C           -5.33898571622404        3.60499278468816        6.83084927988625
C           -6.70523531983300        3.55052218591763        6.99365336880735
C           -7.56272046962119        3.85080418033348        5.92974529041327
N           -8.94136143960746        3.79361913511787        6.08677812163291
C           -7.00059378078279        4.20638868702435        4.70542208490907
C           -4.15464195105450        3.73331603379139        2.57430054358576
C           -3.79722172388972        2.46077538534540        3.08596110690259
C           -2.93927262428929        1.87280368404803        2.20690589349802
C           -2.74939746126560        2.75556702463181        1.11472810395830
N           -3.50522467474765        3.88220642211032        1.36612789267389
C           -6.26248414042767        6.81468303883833        3.26970182144116
C           -6.37199434077744        7.87567803165122        2.45282110948818
C           -0.98166888889392        4.25345805647826       -2.97362037779227
C           -0.88066894751134        3.18728732337899       -2.16219107785651
C            0.24537539032664        1.20775716650660       -0.07451010087574
H            2.88076474750822       -0.80465842631239        0.06358615148456
H            2.86911253245928        0.85629806357665        0.08631397476415
H            0.80062457834301       -2.11677481921915       -0.13371362605724
H           -1.65602139455125       -2.13057423396134       -0.06316060220481
H           -2.89728731494073       -0.01212794391202       -0.00819395387615
H           -0.75267440523742        8.56745734462153       -3.53537412318442
H            0.20765043629207        9.19407651147596       -5.70694499723240
H           -0.14549983297345        7.75832682934252       -7.66987282374576
H           -1.34685499687331        5.84498753098424       -8.65784811349456
H           -2.24595891563704        4.80071782924093       -7.73013588489798
H           -2.44259449524239        5.07451139254471       -5.29368618336597
H           -3.24773874776225        8.94763776320539       -3.80839100595825
H           -4.92059313636880       10.07321266934176       -2.12354525266420
H           -3.73031890592397        6.33304663180144       -0.49199676558825
H           -7.28973307755416        9.39398920379157       -1.53737239444588
H           -8.54336026030522       11.50477310033005       -1.48529607831944
H           -8.19049119494280       13.10135869572968        0.34948899423676
H           -6.83921623753683       13.75844802214667        2.30791815302248
H           -5.71837015858344       12.73215086962398        2.98161401542596
H           -5.30067805828050       10.48940697970171        2.06721018581722
H           -3.72815040953884        4.01260748803149        5.49325733720720
H           -4.69035798991994        3.37185196665150        7.65933142966479
H           -7.12980413915380        3.27705846128901        7.94344050477002
H           -9.35444711820022        3.32340694054596        6.87370361721438
H           -9.55442033441907        3.78665328278372        5.28990239984966
H           -7.64878738364032        4.42848499286709        3.87829064491285
H           -4.14847404496332        2.03287981545551        4.00959298953972
H           -2.47497447865403        0.90827591138975        2.32397633563084
H           -3.56816798008060        4.70407602652382        0.75504738173243
H           -6.73952644376688        6.68931900736446        4.22730561512124
H           -6.96946951391119        8.75634935287861        2.61901058618837
H           -0.46154383586021        4.40586817051210       -3.90453876542561
H           -0.27829042967565        2.30933768759757       -2.32556411610000
H            0.77919972027699        2.13979387121149       -0.06797403978283
