24
 energy: -5.208408192022 gnorm: 0.000494275912 xtb: 6.5.0 (97a52f5)
N            0.93167746193411        0.10021787976258       -0.03954855878785
C            2.30989993236910        0.02600927810816        0.00132328929181
C            3.07880509358775        1.20073124617508        0.04183479570334
C            4.45678825850768        1.17173938590663        0.02375017142631
C            5.13800275564340       -0.03135113397146       -0.03321829959089
C            4.40953703320707       -1.20458519553381       -0.05694182296143
C            3.00900690440847       -1.20165362104890       -0.02711915080421
C            2.55588210250851       -2.59167416110621       -0.01610795103220
C            1.29127190414058       -3.16314070175658        0.06727925970426
C            1.17016742131586       -4.53724984929232        0.06702668696431
C            2.29147914319891       -5.35206022592229       -0.00783984547151
C            3.55501151567471       -4.80283709503884       -0.07507649853844
C            3.68142983237318       -3.42553223614369       -0.07540660798869
C            4.89231291970528       -2.59419896140043       -0.10448024032058
O            6.04463170059471       -2.97191997803391       -0.15217144885379
H            0.47112200601155        0.98441388473032       -0.16931607685077
H            0.37160310782463       -0.64781674721946       -0.40978530839952
H            2.56558044873835        2.14524058162311        0.07635855916982
H            5.01111330855603        2.09537244306863        0.04935525719073
H            6.21287391172552       -0.06995443072776       -0.05278187296004
H            0.42070587937978       -2.54245997321004        0.15563862088758
H            0.19202981601709       -4.98476710046285        0.13050744349057
H            2.17481017863015       -6.42322366522455       -0.00589352497672
H            4.43560736394756       -5.41912962328140       -0.12163687629210
