18
 energy: -3.882196507926 gnorm: 0.000952025617 xtb: 6.5.0 (97a52f5)
N            1.07748214075272       -0.17286807292997        0.10923603389782
C            2.44628530550950       -0.08559324498949        0.10165286069241
C            3.14271217563078        1.13028278875053        0.08913537226103
C            4.52333857849058        1.16358367858571        0.07849719493990
C            5.27081955884067       -0.00438777467508        0.07862220336476
C            4.60406963857368       -1.21465282305954        0.09023259350088
C            3.21603192802364       -1.25653313431254        0.10262662303281
C            2.78968621871670       -2.65581503457074        0.09656163288422
O            1.63801292103334       -3.04102997087885        0.09935424989529
N            3.95738281223023       -3.40944515517204        0.08338989237189
C            5.09185920922715       -2.60677892519847        0.07648154849211
O            6.25235134515303       -2.95796593589535        0.06087638415104
H            0.45198986332552        0.61152237834232        0.05031257893083
H            0.62846926918989       -1.07595867338662        0.08668361700083
H            2.58019436235946        2.04728792016898        0.08954302913237
H            5.03087771963341        2.11462589005552        0.06893275416477
H            6.34722462846805        0.01266404442181        0.06693453799352
H            3.97850232484166       -4.41612795525617        0.06767689329354
