24
 energy: -5.212719241412 gnorm: 0.000796535190 xtb: 6.5.0 (97a52f5)
N            0.99982491365286        0.01217812777024       -0.06144244421268
C            2.37076205649314       -0.04831933546868       -0.04736902687196
C            3.08542317777574       -1.25509495429707       -0.02976107833212
C            4.46537268586609       -1.26935221209624       -0.01500965155246
C            5.19737487352320       -0.09022540706551       -0.01520189663747
C            4.51845781252637        1.11724309687212       -0.03043992084110
C            3.12108131725463        1.13661451272519       -0.04783213691772
C            2.65098604256610        2.52194394030509       -0.03792635433130
O            1.49624278771982        2.90044246540029       -0.03089228832465
C            3.87254238905813        3.34741166255923       -0.02730764504329
C            4.02459600625402        4.72192873256216       -0.02195398583288
C            5.30179781959717        5.24625938198517       -0.00966269214631
C            6.41252534333018        4.41327928567351       -0.00273242218791
C            6.26840955388254        3.03989442367333       -0.00810662740328
C            4.98963853129777        2.50364325988031       -0.02038699959936
H            0.40001479721670       -0.77431933322023        0.12093183325591
H            0.54546299160951        0.90870279431381        0.02574140661478
H            2.53502745967606       -2.17902678887556       -0.03352475836744
H            4.98564715134794       -2.21277159939697       -0.00305227755879
H            6.27262580454317       -0.10218354708330        0.00075388796036
H            3.15529067593582        5.35571002291635       -0.02741223308713
H            5.43753584415849        6.31518334525254       -0.00471913667382
H            7.40019054805788        4.84379270906861        0.00721203166069
H            7.12450941665660        2.38875541654562       -0.00325558357007
