104
 energy: -21.513789267681 gnorm: 0.000553870196 xtb: 6.5.0 (97a52f5)
C            0.71537061493494        0.34441189894428        1.83379001957144
C            2.06713462327263        0.66533406836719        1.16864711908254
C            3.11456350682899       -0.38007524824893        1.59592746310389
C            1.88745241222635        0.57877961620275       -0.35938694080052
C            2.52927336038143        2.06205889995057        1.61232150027870
C            2.73416679760247        2.31773597260261        2.96139834636936
C            3.13474669392076        3.55800715347349        3.39993366292559
C            3.36236337846456        4.59707403555838        2.50293137077588
C            3.72395410525299        5.95733355976624        2.96775464873441
N            3.06857626570231        6.96273002091176        2.43136890582592
C            3.30520632906067        8.16854738556499        2.99341151138865
C            2.60783153346746        9.29859294200034        2.52003803927256
C            2.78357559105038       10.52772411171748        3.08491490678068
C            3.66721761606403       10.68816687854637        4.15158310360900
C            4.36081844927307        9.61672662742757        4.63307899121372
C            4.20371051114157        8.33176403053382        4.07467476490739
N            4.91455760867933        7.30022859919561        4.57994369251580
C            4.68558709366996        6.13801298545795        4.01301318189485
C            5.43485276692461        4.97261504750759        4.53898256333735
C            5.38098571738614        4.68987606972772        5.89598538266277
C            5.96161660083329        3.54413188192792        6.42869342634353
C            5.88541980527761        3.19007867122405        7.86421740511862
N            6.89720452684286        2.50367316870271        8.34597256420846
C            6.82789803656699        2.21561562379886        9.66421749984866
C            7.87636724247581        1.49190397901170       10.26808193910885
C            7.85637354571356        1.19283070099551       11.59893509618281
C            6.78545893348006        1.60332516051507       12.39211529379474
C            5.75320739039508        2.30373758204772       11.83978307829065
C            5.73976789951417        2.62981172057724       10.46787833341526
N            4.68914602169707        3.30889953518034        9.95806873856000
C            4.75973474297356        3.56332090240656        8.67033112161403
C            3.59459884013954        4.25113483181941        8.05357340768401
C            3.33786982549651        5.59221353152269        8.32412230300151
C            2.33768518136547        6.26425076795133        7.65761335571470
C            1.54617807201769        5.62456361875723        6.71057749077574
C            0.44169932954355        6.36673814891426        5.94122681691171
C           -0.91710817944609        6.04495163407768        6.58445024962678
C            0.66809565193932        7.89209212408505        5.96853152999145
C            0.42993595741613        5.92514925593285        4.46405573893877
C            1.75654779408775        4.26688453627487        6.50239602158003
C            2.76689597583860        3.59153698602251        7.14946189116930
C            6.66739386660691        2.71482127882281        5.56633418720651
C            6.78184186520950        2.99556525446593        4.21233350450877
N            7.53562292952248        2.13073888936086        3.34952984526485
C            7.17985827524330        1.75211947080181        2.03821362506009
C            6.03405494893961        2.01247049428818        1.28845028511712
C            5.95624096404652        1.52818087794368        0.00643220896705
C            6.99580476215696        0.77434028031186       -0.54372803689747
C            8.12719040784408        0.49567009034064        0.18526285835401
C            8.22211387185735        0.98653337301250        1.48816543801499
C            9.25544059383157        0.88460739690047        2.49207725466067
C           10.50824199834757        0.26996508760680        2.48901072408351
C           11.29791049348677        0.37581767259996        3.60899219939552
C           10.86231666837531        1.08851920502648        4.72935090075790
C            9.63229087361881        1.69879186799621        4.74594334447981
C            8.81178827688046        1.59318915638201        3.62221809513131
C            6.15780677319113        4.12646984827891        3.70749713061974
C            3.14854344686768        4.34685971582929        1.15219456437580
C            2.74311591674057        3.10387311612567        0.71708875665218
H            0.34971979165455       -0.63324198635665        1.52151711422725
H           -0.03315548157686        1.08778561176116        1.56148216601531
H            0.79968918199770        0.33648055539079        2.91945236977352
H            2.81228367171057       -1.38152179935623        1.29141520659344
H            3.24976947241798       -0.38739313222104        2.67638710883570
H            4.08056151272956       -0.16740252199109        1.14034374515480
H            1.55974093374941       -0.41797572758814       -0.65326278683496
H            2.82321037205685        0.78270406518322       -0.87790260905968
H            1.13668503527448        1.28776494824517       -0.70661644994421
H            2.57155457513820        1.53247611270467        3.67885627684317
H            3.26204690644401        3.74088566359490        4.45164834260776
H            1.92062776071423        9.16711063847638        1.70284657745508
H            2.23803277114231       11.37783934386742        2.70930799707520
H            3.80126134535421       11.66171197374853        4.59393570932571
H            5.04404939262075        9.73436579651388        5.45570133270419
H            4.84516984732485        5.36963870790434        6.52824683635641
H            8.70109305042245        1.18061834590900        9.65131656379243
H            8.66852571013164        0.63877779885678       12.04044731555851
H            6.77501869902780        1.36425085395028       13.44292308977147
H            4.92320601046606        2.62002494030660       12.44672947414200
H            3.96112061327622        6.10760027755068        9.03438715283264
H            2.17970491222087        7.30606365731773        7.87129523554116
H           -0.93455735067703        6.35861765948301        7.62767529056994
H           -1.11765319822463        4.97460223214189        6.55362336196758
H           -1.72655556907298        6.55544218277416        6.06361651342806
H            0.57083553703889        8.29252371669686        6.97654251188340
H           -0.06504476123192        8.40326865092070        5.34538893429511
H            1.65870387873972        8.14278186653337        5.59026319721721
H            0.17542019131637        4.87229932705662        4.35740247237990
H            1.40623850636142        6.08572005204891        4.01094054713494
H           -0.30123401033290        6.49638372327123        3.89322170900576
H            1.12364959910337        3.73180401127378        5.81673537573853
H            2.94169400699314        2.54827898783061        6.94941764793899
H            7.13246541935243        1.83189991180555        5.96092374603513
H            5.22283709811401        2.56533191729455        1.72449571235087
H            5.07939733694365        1.73153461481358       -0.58510227449463
H            6.90678278496941        0.40478502836888       -1.55204532868212
H            8.93193217182225       -0.08547422014709       -0.22922779720004
H           10.83937548534436       -0.26888127553815        1.61886350539955
H           12.26841797464595       -0.09236582261045        3.62274886955553
H           11.50349115112309        1.16091348402118        5.59255203536992
H            9.29897687279757        2.25561595077052        5.60257765777182
H            6.23621679200466        4.35474089797237        2.66116698921971
H            3.29845979403963        5.14720044811090        0.44848243197946
H            2.58617910212084        2.94616043853117       -0.33493329867489
