26
 energy: -5.662520720699 gnorm: 0.000944382344 xtb: 6.5.0 (97a52f5)
N            1.11920260957243        0.19902558837330       -0.10116027772230
C            2.48737806557494        0.10245883278326       -0.09576975419617
C            3.26007723041378        1.26922487175296       -0.10496728671270
C            4.62992213040199        1.21092985650193       -0.10149062993844
C            5.26595205113737       -0.01290335784722       -0.08792412130684
C            4.54203171494916       -1.19350937631773       -0.07860030083738
C            3.13776437460752       -1.15556148629388       -0.08264312834435
C            2.36682331066319       -2.40751667649735       -0.07230442649485
O            1.14995953043375       -2.42392369044819       -0.05475602928407
C            3.10201649952683       -3.68720451234346       -0.08245334411238
C            2.40068038497503       -4.88410815133804       -0.09622897134398
C            3.06178635853735       -6.09060537959364       -0.10072235731977
C            4.44300249390022       -6.12025615742477       -0.09045206606736
C            5.15406152369322       -4.94276110298719       -0.07716325951295
C            4.50099221510412       -3.71886835455788       -0.07403146583128
C            5.27724051760759       -2.47060339752459       -0.06238587679334
O            6.49296616131423       -2.49193857604931       -0.04072990292159
H            0.60848979049181        1.06115929641574       -0.02068487665543
H            0.54431298558293       -0.62518853032601       -0.04140875727376
H            2.75963951948055        2.22117343575069       -0.11763434216245
H            5.20968687084492        2.11923372856481       -0.11127375629992
H            6.34110381002202       -0.07093528899819       -0.08379407925091
H            1.32458302842550       -4.84724769203152       -0.10246903867833
H            2.50306486877082       -7.01194955160812       -0.11176390627150
H            4.96223338355760       -7.06443750175168       -0.09276581524458
H            6.23072857041114       -4.95060682620391       -0.06920222942339
