47
 energy: -10.246083574137 gnorm: 0.000761042484 xtb: 6.5.0 (97a52f5)
N            1.66257433637568        0.33674325341307        3.07980654043091
C            2.45323735659748        0.32399949634784        1.97159094629618
C            2.62846694909255        1.49778641727436        1.23093293424637
C            3.42125528512569        1.53066260892920        0.09973466327392
C            4.06393020648165        0.39788051586729       -0.33262126783667
C            3.92657333587680       -0.80529323498610        0.36648311693384
C            3.12288977660004       -0.86968049345500        1.53099907405724
C            3.01496128598304       -2.10281460966258        2.20477072416530
C            3.66429777202998       -3.21692213443175        1.75359167806938
C            4.44522415869329       -3.11932375384452        0.60062681468627
N            4.56125405349978       -1.94729855638075       -0.05832235751440
B            5.47064061021777       -2.15546592800002       -1.28635994415554
F            4.76863286136827       -1.90680160692401       -2.45315167472743
F            6.60347352722539       -1.36653366488126       -1.18648423961055
N            5.84916455923220       -3.64696652650518       -1.19854900216185
C            5.21958834279265       -4.13685040054748       -0.08015415175320
C            5.54156817591483       -5.49300979872819        0.02764949544569
C            6.38322425102108       -5.80004981782268       -1.06051803488368
C            7.01864342325180       -7.02678040880028       -1.47311050206755
C            6.86074547426707       -8.20885804111398       -0.74289122175631
C            7.47069911327120       -9.36675193123767       -1.14613748621988
C            8.25376194589920       -9.37375803839849       -2.28969507983409
C            8.42337849666416       -8.22587367971678       -3.02370795983724
C            7.81785706651233       -7.02104159905098       -2.64667588617158
C            7.99242302036906       -5.78625793753292       -3.42601172391702
C            8.76482723820916       -5.72862924779664       -4.59252707810078
C            8.90731215528727       -4.55847427636110       -5.29887945461651
C            8.28474728564942       -3.39461604644460       -4.87164568416384
C            7.52047484254985       -3.41053083250477       -3.73636279510620
C            7.36441381136772       -4.58987809332431       -3.00647679211786
C            6.56559612348590       -4.61988245912476       -1.82297142164297
H            1.18605980188243        1.16063285718969        3.40421853303858
H            1.47962729554080       -0.45607078288397        3.67013488718969
H            2.12907246306529        2.39164814689669        1.55989222523845
H            3.53487509395046        2.45217135018726       -0.44734462150644
H            4.68329470095968        0.41163115894708       -1.21210271185072
H            2.41057054548834       -2.16875610596203        3.09035487227394
H            3.58276190512944       -4.15977020796194        2.26493906292883
H            5.20648397071656       -6.16609943770342        0.79608548829637
H            6.25271052780999       -8.19994901646958        0.14463694475441
H            7.34227683108625      -10.27225302584838       -0.57599620377756
H            8.73189413762807      -10.28739084943559       -2.60307796209905
H            9.03643420602035       -8.26198144713721       -3.90532532182601
H            9.25871571510880       -6.61304367144399       -4.95061086019011
H            9.50730600903913       -4.54278741946544       -6.19402400866151
H            8.40216949299653       -2.48179709969843       -5.43222291725215
H            7.02667046267263       -2.52046362345447       -3.38638963595796
