17
 energy: -3.576443202095 gnorm: 0.000941356031 xtb: 6.5.0 (97a52f5)
N            0.98809718260638        0.08389777358244        0.12314936378023
C            2.37627671541801        0.07351571552503        0.09051575551112
C            3.10275411911900       -1.10515461023651       -0.01775291187368
C            4.50247434649142       -1.11038407662081       -0.06273876501249
C            5.22221765915726        0.05366587309511       -0.00109151392012
C            4.51826226511358        1.26975412651477        0.11175297524130
C            4.90895817775916        2.63446762194913        0.20296678309827
N            3.85658314876914        3.41653913896309        0.30008422102172
N            2.78848872700206        2.62112639434984        0.27263946493955
C            3.12438641553307        1.27646954810113        0.15778002562110
H            0.46754505824024       -0.71809617956564       -0.18688563504345
H            0.48509791843074        0.93359083329895       -0.06466312880472
H            2.56558624095976       -2.03560457671942       -0.06776478042820
H            5.02213397263440       -2.05041794715633       -0.14830257005335
H            6.29718611840740        0.05589347413586       -0.03568098164574
H            5.92671293081579        2.99295832307019        0.19928917266780
H            1.83152900354257        2.97882856771315        0.34519252490065
