19
 energy: -3.992947640905 gnorm: 0.000569596011 xtb: 6.5.0 (97a52f5)
N            1.06753212648280        0.12903410182154       -0.03241107978331
C            2.44829597542918        0.11076787785655       -0.03054094966823
C            3.15270055663371        1.30457762868382       -0.02297700207772
C            4.53955530786985        1.32285983718879       -0.00253138573872
C            5.25050871049533        0.15484181988582        0.00845239498368
C            4.60241833676743       -1.09623881338125       -0.00686278258044
N            5.36157541254766       -2.22734608791741       -0.00041784383864
C            4.71505206612871       -3.36194916473394       -0.02549953498889
C            3.33221005108073       -3.49164661570638       -0.06171879787247
C            2.55970339783368       -2.37313986021001       -0.06532432567124
C            3.18553848787904       -1.12209716982516       -0.03159102148284
H            0.55378377684828        0.98114001300226        0.11440937260381
H            0.50728788689922       -0.67730473390329        0.18459331680138
H            2.60410525346071        2.22984558768737       -0.03053578848649
H            5.05955267802606        2.26678658993255        0.00667440689021
H            6.32594442145756        0.17112870440426        0.02709673567238
H            5.31999669333462       -4.25582950363819       -0.02087518541326
H            2.87969103912971       -4.46935994021112       -0.08783340237993
H            1.48838782169572       -2.44844027093621       -0.10266712696927
