14
 energy: -1.488567950345 gnorm: 0.000423203625 xtb: 6.5.0 (97a52f5)
N           -2.28325773213411        0.05646694974370        0.00224899856446
C           -0.92716569063614        0.03675802917254        0.00144717772248
C           -0.17844528417850        1.22365046653899        0.00024750320719
C            1.18559184109040        1.17253378388431       -0.00312125966302
C            1.84305804869368       -0.05398494874652       -0.00531895003065
C            1.11239791171305       -1.20487531574416       -0.00319606935030
N           -0.24018833495877       -1.14184274320283        0.00077016328923
H           -2.82713338767773        0.89687043698566        0.00134473157840
H           -2.84538028212408       -0.77072450609934        0.00566433877474
H           -0.69029101945329        2.17254273820252        0.00447541187354
H            1.76043676328558        2.08788865119824       -0.00345869959318
H            2.92305296221511       -0.09183452440342       -0.00842721834320
H            1.59722275865333       -2.17032310719667       -0.00346480983404
H           -0.77830855448854       -2.00382591033301        0.00051868180435
