21
 energy: -3.941005497475 gnorm: 0.000981223507 xtb: 6.5.0 (97a52f5)
N            2.34994939937539       -0.21866228958195        0.27308596566803
C            0.98485428861261       -0.08778860499622        0.08799772098345
C            0.19451207835475       -1.22791950107500       -0.08973547050626
C           -1.17035124655380       -1.13467617602240       -0.20293032168728
C           -1.78805212146776        0.10051822006208       -0.13901405311101
C           -1.03483260212354        1.23988942631704        0.02303179979530
C            0.35268194665851        1.18065617142920        0.12221822772640
C            1.11728507766426        2.42049189575150        0.23616528335531
C            2.25460594871111        2.66026170045057       -0.40291465596531
C            2.97586522567089        3.97531727264403       -0.26560787134079
F            2.56171783742541        4.79888079913509       -1.24396746658969
F            2.68915760224555        4.50618418340608        0.93625445183658
F            4.29854576855657        3.75698990199245       -0.37149726015384
H            2.77308683883517       -1.11999623442878        0.40954934147086
H            2.89637735960668        0.50917992498784        0.70050203198621
H            0.67370803315934       -2.19061076002573       -0.12964751663542
H           -1.76252821707148       -2.02600066452498       -0.33560270865143
H           -2.86053693656609        0.17098385703831       -0.22240474423822
H           -1.51783287631565        2.20220551222029        0.05342835755357
H            0.71159484162287        3.20511140872810        0.85285805774950
H            2.66816175359923        1.93392395649266       -1.07615916924598
