53
 energy: -11.003432224672 gnorm: 0.000558135325 xtb: 6.5.0 (97a52f5)
C            1.23659384194891        0.44764671864373       -0.65072154777004
C            2.64032563031260        0.78724127952559       -0.11546365745802
C            3.07154601815570       -0.27130859938314        0.91676473889975
C            3.63192737032469        0.74729666138304       -1.29467879743807
C            2.60698187726992        2.16946489307885        0.55577256167807
C            1.76783366660464        2.38651280498711        1.64195355297725
C            1.70377617431068        3.61401727083708        2.26167257463727
C            2.48227846937137        4.67332907256798        1.81362993100598
C            2.41050729356933        5.98331062184142        2.45033732594103
N            1.61738951290696        6.28224660286149        3.48635252918167
N            1.79407660691118        7.53081752228532        3.78495716022545
C            2.70564497161414        8.04465069452060        2.94552221091207
C            3.18741625436804        9.41596555274624        2.93655845723859
C            4.18873944328798        9.74857631652237        2.02387741696586
C            4.69641195434551       11.01918850341502        1.93589158155747
C            4.21833732675657       12.03910394444875        2.76485029264191
C            4.72172266188595       13.37228980378262        2.69161563261500
C            4.24258938452674       14.34932945735796        3.49509368728737
C            3.21357078046074       14.08211335083071        4.44927922201077
C            2.69813348809468       15.07392243907477        5.28628790971303
C            1.70299022997655       14.78332103328220        6.19616878372972
C            1.19433978569863       13.50565198069085        6.29920847655278
C            1.67531304445514       12.47795954779270        5.48482536688410
C            1.17191635947870       11.14507116330217        5.56020429155578
C            1.65322746745844       10.17259932004271        4.75455444512591
C            2.67858189448404       10.42067829487772        3.79618604260798
C            3.20022678792750       11.73577190488035        3.70107917062882
C            2.69626223710561       12.76690474208606        4.54780251032541
O            3.12622905043652        7.07881152211921        2.07896010264781
C            3.32524802697518        4.46412044031513        0.73072739225542
C            3.38530237676722        3.23395062227740        0.11435543251624
H            1.23458530198315       -0.51877060477915       -1.15383324813155
H            0.90458434067692        1.20070232670364       -1.36471698195768
H            0.50508381526965        0.40470451541064        0.15485461892334
H            3.12729447204085       -1.25937789235300        0.46121737528793
H            2.36731449682289       -0.32682898487386        1.74538661896675
H            4.05262017591966       -0.03247581034242        1.32590643709040
H            3.64492946821898       -0.24027855590088       -1.75468998439587
H            4.64562293616087        0.96868094620464       -0.96265189891498
H            3.35386079155977        1.46502488068928       -2.06556322512438
H            1.15377577743595        1.58037397558618        2.00348920101645
H            1.04606869740795        3.76939477482813        3.09876793380898
H            4.56248620443298        8.97414646791998        1.37624745268606
H            5.46962194828290       11.24518861743047        1.22209920662708
H            5.49649917261380       13.59083148155957        1.97732818732006
H            4.63268152442889       15.34984341716993        3.42474388942420
H            3.08781042702832       16.07451721915182        5.21276761948685
H            1.31786745751552       15.56328770550771        6.83251444452281
H            0.41726453587353       13.28826450143929        7.01140671905145
H            0.39640360360274       10.92597401671391        6.27343789992982
H            1.25641359390332        9.17927920491855        4.83099318044518
H            3.92828739435025        5.28333659271687        0.37841249558973
H            4.04648387666764        3.10402572129963       -0.72341273929868
