17
 energy: -3.358465051165 gnorm: 0.000434309808 xtb: 6.5.0 (97a52f5)
N            2.36415232187114       -0.03364745043090        0.18340662057376
C            0.98946835414269       -0.00429932647183        0.05372904991204
C            0.25719676126477       -1.19344174106530       -0.03377131913732
C           -1.11360811688661       -1.17504252806569       -0.09576411729912
C           -1.79553601315462        0.02926491600557       -0.06974882051138
C           -1.09867001489942        1.21246205558174        0.00318557240112
C            0.28738574664278        1.21933464092805        0.04914458824035
C            1.01506244626611        2.51278672431708        0.09446236736643
O            0.57506727184595        3.41928976784113        0.77995874029467
O            2.14618354317597        2.61287468155272       -0.66170225835600
H            2.84810624562949       -0.89149674201615        0.37651575338356
H            2.86842627210172        0.76134242204554        0.53925361766072
H            0.78706933644472       -2.12957772617436       -0.04193661173489
H           -1.66202648337735       -2.10066252104223       -0.15803989003726
H           -2.87242537815665        0.03939408091738       -0.11080688495550
H           -1.62068126898554        2.15419165034316        0.02082222803697
H            2.27261897607492        1.81273709573409       -1.21399863583809
