13
 energy: -2.596614128941 gnorm: 0.000778501251 xtb: 6.5.0 (97a52f5)
N            2.26669673253679       -0.08967768317332        0.10532947483428
C            0.87886969358413       -0.02227580660476        0.06865863730694
C            0.14803804041155       -1.21003198291729        0.04134923475248
C           -1.22028735310286       -1.16882901666195       -0.00728069730767
C           -1.82541056457342        0.06355477771156       -0.02652237367179
C           -1.03243946751400        1.18931325584079        0.00476541421570
N            0.28556706836207        1.18427480425884        0.05039384139279
H            2.76781363620762       -0.92799345927708       -0.13018940515602
H            2.80171118825045        0.73709531001201       -0.07970154557827
H            0.66909079063247       -2.15081745193541        0.06107381974025
H           -1.80361074978634       -2.07478608353007       -0.02944627461730
H           -2.89894308097653        0.14817482608379       -0.06478475508624
H           -1.50340593403194        2.16061851019289       -0.00883537082515
