13
 energy: -2.511637680702 gnorm: 0.000612872624 xtb: 6.5.0 (97a52f5)
N            2.83959799519551       -0.69422392329409       -0.08215784691507
C            1.50150052500252       -0.35131143642945       -0.06027244777916
C            0.53579005442420       -1.35021343498319       -0.02074719604528
C           -0.79310923701649       -0.98473677279528        0.00183905673376
N           -1.10414789256178        0.30131384653815       -0.01229613948371
C           -0.14784846029478        1.21607877607474       -0.04800783098869
C            1.15199831041101        0.94130048757206       -0.07089928880363
H            3.18709218635298       -1.59996671279629        0.18074116702852
H            3.50896075048770        0.04209565469170        0.03483002751716
H            0.82974052050425       -2.38460718623953       -0.01338285419893
H           -1.56661472254586       -1.73696386704741        0.03026065264113
H           -5.62668542197025        4.37782494791241        0.15318994063266
H           -0.40577460800529        2.26610962060972       -0.06121724034674
