19
 energy: -3.952388550931 gnorm: 0.000797993102 xtb: 6.5.0 (97a52f5)
N            1.00451226367092        0.10952064753972        0.08100898796194
C            2.36521567926187        0.17196413050157        0.03253069349235
N            2.99359783738400        1.32946987550918        0.02743812872984
N            4.32779992351093        1.31555592542527       -0.02568692054332
O            4.96077884821625        2.40913141870972       -0.03154900798590
C            5.07310060040997        0.11020613243156       -0.07696215792837
C            6.45999539459258        0.12121807583922       -0.13217770298083
C            7.16663912319927       -1.06024457829111       -0.17730382628068
F            8.51728456388463       -1.04162361869585       -0.23040336995651
C            6.48213774760216       -2.27467027120564       -0.16751739174364
C            5.11155651647252       -2.29807143357140       -0.11330964448840
C            4.40031583488637       -1.10457905090217       -0.06780304519435
N            3.00317571692714       -1.06435918034525       -0.01127959145438
O            2.31028202229832       -2.13707506042106       -0.00148460263079
H            0.41305926074276        0.91835560369963        0.05828436732074
H            0.54137302453208       -0.78432037598623        0.04576565153104
H            6.98624641463834        1.05973119230893       -0.13896184005804
H            7.05203898572615       -3.18756376430971       -0.20357409181451
H            4.56647024204372       -3.22799566823639       -0.10504463597617
