19
 energy: -3.608855114606 gnorm: 0.000906625331 xtb: 6.5.0 (97a52f5)
N            1.16692644964348       -0.31468865560601        1.00168090939168
C            2.46790041439235       -0.16962749398144        0.72401813670459
N            3.25407144623425       -1.22636513716306        0.62883914170601
N            4.54682844131720       -1.02088516045955        0.35216157709708
O            5.31692266921466       -2.01224354200475        0.24831449327406
C            5.08698885323201        0.28811652501986        0.16800152877489
C            6.41320158938124        0.46934369520940       -0.10688658839823
C            6.91420753190944        1.70286320399762       -0.28683295451807
C            8.22868346877386        1.87189167929937       -0.55906501891219
C            6.08775902228666        2.81457247832192       -0.19534543193443
C            4.74687833654681        2.63997670811577        0.08332920319929
N            4.23529343413341        1.37309155543361        0.26973842339045
O            2.95122890924570        1.09195169715326        0.54969042544911
H           -2.68101479709088       -2.28251995946541       -2.90542220111033
H            0.60879204626782        0.48992875487977        1.06670699288860
H            6.02538372556337       -3.82093048273885        0.20974516453651
H            9.89990261878826        2.04005272614911       -0.89317152218062
H            6.51065783300247        3.79544347432657       -0.34459682630499
H            4.09669800735560        3.49786793309782        0.15739454695085
