84
 energy: -17.934862761513 gnorm: 0.000443178080 xtb: 6.5.0 (97a52f5)
N           -2.03354052235980        0.03530890433333       -0.14063872813650
C           -0.64656168618075        0.01473651733476       -0.05738588937287
N           -0.02818175065975        1.20098641415874       -0.01886951810215
C            1.30468603855803        1.17973815591142        0.05750234595231
C            2.01041672252900        2.44603281940707        0.08061747905268
C            3.34484387681557        2.59655694965052       -0.00831183371941
C            4.05131442256295        3.86171177248835        0.01060573923324
C            5.42535968982817        3.88478405334685       -0.25215983685166
C            6.12791472084345        5.06313167627747       -0.24667781915296
C            5.49236520270266        6.27335145366277        0.02880321387599
N            6.22836394908005        7.50096288116077        0.03541643594418
C            7.32324360646513        7.68719940298531       -0.87596133725922
C            8.48087449732156        8.34920854634929       -0.47432548987791
C            9.52979951679014        8.52380589405410       -1.34903511670534
C            9.44244854781833        8.04190500283140       -2.64074291239561
C            8.30024945182076        7.38467836982483       -3.05498352946935
C            7.25037979801643        7.20837410409186       -2.18194616323699
C            5.88954396328595        8.54287698830215        0.96404857344049
C            5.96831186578156        9.88242282071114        0.59105162978761
C            5.64855530510671       10.88049581187977        1.48402729091107
C            5.24532441123183       10.56019474745433        2.76586945070469
C            5.16375530405180        9.23633801336900        3.15180615633034
C            5.48261562760659        8.23665000012859        2.26046470821202
C            4.12394644033857        6.25483460561219        0.29872500130396
C            3.41722122420427        5.07776790485524        0.28855026690718
C            1.98308682598720       -0.02219605268396        0.11630292311147
C            1.26347982695990       -1.19986196611231        0.08156161264222
C            1.97066749443605       -2.45856157994860        0.15070183710050
C            1.35189304243437       -3.64764680720147        0.06686750616843
C            1.99876316816904       -4.94241332522710        0.13367272418939
C            1.25934932115688       -6.10142525268892       -0.12542339558028
C            1.84649090558723       -7.34112124200646       -0.07607464918936
C            3.19736527178341       -7.48087275609794        0.24220034422793
N            3.81266445975374       -8.77218554800845        0.29491547538470
C            3.41299928537230       -9.80261127954787       -0.62213707275073
C            3.36361887303495      -11.13478376175489       -0.21907379523400
C            2.99358937306000      -12.12338477631757       -1.10308239347785
C            2.66607691188729      -11.80077003339051       -2.40575741782441
C            2.70991704914837      -10.48408611977868       -2.82112128113608
C            3.07995157319881       -9.49393119687574       -1.93892658209771
C            4.85248199850569       -9.03391285753907        1.25114628847226
C            5.95597239261066       -9.81190095496008        0.90935414346606
C            6.95361010042000      -10.05742408513858        1.82598286810209
C            6.86790261538740       -9.53194043155515        3.10066748135407
C            5.77897957310943       -8.75972693106858        3.45577132958277
C            4.78029300765892       -8.51262782228468        2.54082081338301
C            3.93598423547392       -6.32849323086067        0.50923455215462
C            3.35284791890862       -5.08744836006137        0.45505178638083
N           -0.06596328113106       -1.18970032839474       -0.01212236856668
H           -2.54355993797990        0.88040981332788        0.02905783152891
H           -2.56668868595572       -0.79502664663381        0.03073350419915
H            1.39194592993318        3.32105632213182        0.14584887763514
H            3.95406702692241        1.71985637458527       -0.12885058547176
H            5.93180896030480        2.95874862554018       -0.46417956965535
H            7.18572062269523        5.06607010843033       -0.44336104760253
H            8.54651990205767        8.71502886126168        0.53536149292307
H           10.42098535773591        9.03599190467659       -1.02495021648843
H           10.26404368072087        8.17897618897546       -3.32465740958130
H            8.23039106696822        7.00984489854223       -4.06307590540435
H            6.35509732553336        6.70394121936876       -2.50095585545351
H            6.27692366972688       10.12539698873646       -0.41064218239330
H            5.71275107698487       11.91315192122340        1.18221780733209
H            4.99550371501568       11.34215656901423        3.46418083773055
H            4.85175259851234        8.98552409597076        4.15248837706457
H            5.43030045824718        7.20410637547112        2.55858571900345
H            3.62528585315773        7.18554444646804        0.50569772395367
H            2.36464381672197        5.09236314581232        0.50717409002760
H            3.05265337257539       -0.05489326207357        0.20220236400176
H            3.03829930629428       -2.42001978559169        0.26143221861957
H            0.28598093986288       -3.64241213009148       -0.07182604471706
H            0.21502815448896       -6.01043899942512       -0.37039608833531
H            1.26599175488242       -8.22574240734390       -0.27138051485114
H            3.61405722838159      -11.37922856802600        0.79838838793569
H            2.95980934490313      -13.15048026164943       -0.77826690566239
H            2.37790866936227      -12.57538976722515       -3.09746177908065
H            2.45635075515231      -10.23164962663671       -3.83778657402884
H            3.12752671168911       -8.46821861533464       -2.26039411561330
H            6.02122738671384      -10.21169289655832       -0.08740874598048
H            7.80337141789400      -10.65930340742668        1.54809583488813
H            7.64955783461218       -9.72441841913788        3.81726149359757
H            5.71046101882922       -8.35077855277661        4.45060030782644
H            3.92586302682648       -7.91836905033434        2.81396164537307
H            4.98018300202328       -6.42736897918957        0.74922131048089
H            3.94485547175320       -4.21662359479296        0.67227086895257
