32
 energy: -6.011626750421 gnorm: 0.000213159579 xtb: 6.5.0 (97a52f5)
N            1.11651231896026        0.00721541532297       -0.37472043592528
C            2.47583588997424       -0.01990634497478       -0.19531356006041
N            3.07610146128531       -1.18365252007418       -0.05669289452363
C            4.41704551837181       -1.10323303505194        0.12559273733240
C            5.17859945896450        0.06910155450990        0.17119890999666
N            6.48944299471357       -0.22136690606600        0.38780804804751
C            6.56500306243144       -1.52189064918501        0.47902614063309
N            5.32525782093036       -2.11690736418701        0.31986460967248
C            5.01105344961593       -3.55217765385656        0.38729244387445
C            5.29666500379853       -4.27247840495330       -0.94134939229494
C            5.82190264170255       -5.64743355300656       -0.50142535304813
O            4.80975943261638       -6.64020353155481       -0.47954043239102
C            6.39939916951755       -5.39236808833149        0.91782989832412
C            7.91951048087269       -5.23122803126901        0.90876067444926
O            8.58839609351023       -6.35356181657566        0.37842372509519
O            5.74600689429991       -4.21387252231636        1.43850594850309
C            4.51050843233759        1.33227244095621        0.01245303246606
O            5.08794055750936        2.41238442332842        0.03667734308769
N            3.14862905044756        1.19352866949860       -0.16688634415613
H            0.57576819636262       -0.83253199006154       -0.39817863048386
H            0.57732105063502        0.84392384532615       -0.47827060622165
H            7.48082166034024       -2.06110425950027        0.67180448541271
H            3.95156055539550       -3.64158366606047        0.66371266045472
H            6.04293279998071       -3.71437325074517       -1.51418571665122
H            4.40226478369456       -4.37305103910133       -1.56328093876377
H            6.61094323207779       -6.02029541345931       -1.17461557353725
H            4.09236900988351       -6.38060100694554        0.12703612140380
H            6.11289182976607       -6.22427728608517        1.57653158906469
H            8.30054389836107       -5.01639069174105        1.91497018908261
H            8.19048072622667       -4.37749453046840        0.27950751328958
H            8.42717793816607       -7.14964762504053        0.91768420066836
H            2.61852458725243        2.04139483167061       -0.27963039280269
