16
 energy: -3.226337478031 gnorm: 0.000981247781 xtb: 6.5.0 (97a52f5)
N            1.01259115547951       -0.14836134309783        0.05945619422443
C            2.36707291774598        0.03967304701775        0.06388599063603
N            3.24077101219784       -0.93305364348223        0.06663347812363
C            4.53652042773537       -0.45970854017916        0.07046479820216
C            5.69334471523128       -1.25403726505115        0.07244552425270
C            6.92992795095761       -0.64938118496964        0.07530133336460
C            7.04448390814384        0.73549156821132        0.07609837992090
Br           8.75345161131447        1.53450496289600        0.08010331449161
C            5.92356761298006        1.53200656574972        0.07394160956499
C            4.67041162176970        0.93651576388729        0.07092999441389
S            3.08908934878369        1.65678244821978        0.06687069369669
H            0.60119698138931       -1.06145897540992        0.07852086545492
H            0.34901462519251        0.60407369705872        0.08076579549817
H            5.59614174178845       -2.32468025100576        0.07172652835906
H            7.82885067126239       -1.24368633543892        0.07701539198522
H            6.01709369802798        2.60417948559401        0.07428010781099
