109
 energy: -23.110257139259 gnorm: 0.000659289279 xtb: 6.5.0 (97a52f5)
C            3.22377207746672        1.35667378984608        0.87449961086403
C            4.40894985175995        1.70064111958282       -0.04708247257257
C            5.62050275133627        2.06310171705012        0.83364713657019
C            4.77896251527291        0.47103802940635       -0.89786289381356
C            4.00977626980395        2.85927740331145       -0.97421907615017
C            4.67161467681464        4.08212019898469       -0.97220956671977
C            4.28526025002677        5.10177600109144       -1.81376376261685
C            3.21859962764887        4.93045843069424       -2.68383917951528
N            2.79792389021286        5.99826258184566       -3.56086192897323
C            1.72830740974778        6.89636126150426       -3.38203926540441
C            0.87749591494083        6.98960159050977       -2.19845373626946
C           -0.28761302584096        7.75496581991418       -2.24507326622441
C           -1.08962529643794        7.89584077652280       -1.13832277504495
C           -0.75340679622061        7.28409146865132        0.07045837270233
C           -1.59227753708177        7.47148309712510        1.27791356758272
C           -2.95249408738657        7.20195288556758        1.21463830382316
C           -3.78803303628742        7.33900977514261        2.31293739575757
C           -5.23384997162739        7.03941964462497        2.16579741875827
C           -5.65562911434619        5.80437736439187        1.67528839534298
C           -6.99723760363216        5.52172932073947        1.53889927098664
C           -7.94298233826644        6.46624191523444        1.88543027687324
C           -7.54356129461194        7.69689505605515        2.36740526732978
C           -6.20301384006600        7.98274598564235        2.50477857471852
C           -3.24310335267506        7.76823617836938        3.54230275533809
C           -4.11291623103051        7.91051285118337        4.73766124007463
C           -4.78698354322337        6.80908084715348        5.26516859646835
C           -5.59461246128904        6.94202518463918        6.37275594684948
C           -5.74482669667704        8.17480553503263        6.97652278619752
C           -5.08482055975243        9.27640806059943        6.46892783287716
C           -4.27741458658135        9.14772027596212        5.36073623316848
C           -1.86586563029792        8.05862921303124        3.62944117958314
C           -1.28608548314555        8.52666855126141        4.91520522075083
C           -1.28343864150637        7.70368236009284        6.04057567133433
C           -0.74686343350103        8.14168123670964        7.23118104599202
C           -0.20159797511409        9.40708935596981        7.32116696958556
C           -0.19448299129770       10.23525118527553        6.21636785463797
C           -0.73166099236298        9.80128158105293        5.02469918802558
C           -1.03624763172653        7.91108632667937        2.49930450552962
C            0.41312482955245        8.22292385523710        2.59177537132491
C            1.24609354412638        7.50609041761302        3.45106847993627
C            2.59147536625546        7.79032231539015        3.52733588857863
C            3.13254984434909        8.79372608922470        2.74809207346050
C            2.32349627976516        9.51446394550683        1.89205580337080
C            0.97738884070453        9.23410333801837        1.81382645646804
C            0.40429435568627        6.50638948276549        0.11380069978018
C            1.20114713112273        6.36532381164173       -0.99402976948892
N            1.57125450558740        7.68032469344923       -4.44126887212764
C            2.53020429512276        7.32251357798543       -5.32535388891973
C            2.78783016964475        7.86174992194584       -6.63788363907539
C            2.01161061307273        8.90512270910264       -7.14793502483580
C            2.26129686954103        9.41591347811659       -8.39387004918240
C            3.29442335221724        8.89426928774024       -9.15928567504133
C            4.06883518527747        7.86863012743292       -8.67654168965501
C            3.84419142739951        7.32027907039171       -7.40581543346108
C            4.65888357680508        6.22528645916001       -6.86593962567758
C            5.71813033205204        5.65853702155205       -7.58899462882622
C            6.46965971498933        4.63319001330080       -7.07219421105735
C            6.19389478874881        4.12940938694441       -5.80976723270485
C            5.16853974542213        4.65909180914152       -5.07451153053706
C            4.38837636946257        5.70645669777812       -5.57613259941100
C            3.30860110035248        6.28022100686966       -4.81590457845221
C            2.55278155106214        3.71469513807694       -2.69328354875335
C            2.94411216308510        2.69866429389068       -1.85105973858604
H            3.48300140074287        0.54861080971889        1.55796137590097
H            2.35407579045436        1.04105683056388        0.29991972601894
H            2.93568028630366        2.22270001877986        1.46978148542784
H            5.89431072562730        1.22643732776191        1.47596787582548
H            5.39720993465212        2.91292004535288        1.47797155951573
H            6.48943582563645        2.30837476932133        0.22374364240835
H            5.08601773175322       -0.36194807851830       -0.26609797515911
H            5.60170355634123        0.70419117409724       -1.57317270747471
H            3.93563547801926        0.13727858261518       -1.50071657778224
H            5.49984543191827        4.24309913492043       -0.30546183236866
H            4.80324396221053        6.04520193179323       -1.80779230400719
H           -0.54634545762677        8.24389643481381       -3.16790777930713
H           -1.97891061586111        8.50048174041621       -1.18631679548419
H           -3.37241076508657        6.87055894971104        0.28201270888947
H           -4.91614729265549        5.06745645482494        1.41244424736812
H           -7.30895526469347        4.56107296526094        1.16224962649821
H           -8.99222581587048        6.24338539032407        1.77897121765396
H           -8.28132802606810        8.43473077927696        2.63783443368154
H           -5.88823366574031        8.94098259604880        2.88055544110662
H           -4.66695297449186        5.85014510879460        4.79106542514995
H           -6.11066074081384        6.08234878523755        6.76825871043828
H           -6.37721135789634        8.27726503736244        7.84338728589431
H           -5.20123169321273       10.23854267714844        6.94064746624599
H           -3.76179094945015       10.00396510883722        4.96117505953878
H           -1.71000101096767        6.71823532327061        5.96544893625619
H           -0.75393334389394        7.49588744767895        8.09411540663881
H            0.21766247914720        9.74859856417550        8.25360340436272
H            0.23181642991053       11.22276114147092        6.28613739078079
H           -0.72885359177305       10.44329407813205        4.16064956504043
H            0.82068998984302        6.72281857926341        4.05451013503194
H            3.22284454802384        7.22846801270636        4.19626105169000
H            4.18594345947560        9.01420408876930        2.80818274674607
H            2.74611361199461       10.29681041198050        1.28287892601224
H            0.34327841854009        9.79170284462363        1.14620077397017
H            0.67236401785814        6.02359018050000        1.03768903651851
H            2.09749155273525        5.77966898003419       -0.92795254905394
H            1.21410287731736        9.30078846335801       -6.54357061005343
H            1.65742275148151       10.22061558243832       -8.78064212653061
H            3.48848376494882        9.29862948384758      -10.13953227202800
H            4.86138934705741        7.48381892485228       -9.29183993422187
H            5.95437267513978        6.03098896071036       -8.56891310072331
H            7.27876511553103        4.21523625993973       -7.64902686535764
H            6.78633307186889        3.32284488778149       -5.40924391053319
H            4.95409045998837        4.27045096024680       -4.09687456184237
H            1.72320657584548        3.58318234320597       -3.36600209939013
H            2.41126426143807        1.76393798192959       -1.86974639070490
