18
 energy: -2.935546450762 gnorm: 0.000595690479 xtb: 6.5.0 (97a52f5)
N           -4.65910243717721        2.99573493521310       -0.12894451747103
C           -3.40562195010318        2.44236521485749       -0.02520576614771
N           -2.31555524681300        3.18548843519499       -0.03909485232554
C           -1.27026740144031        2.39200159280062        0.06162110559932
C            0.04635610809870        2.78699701344819        0.10009557147417
C            1.08991313293379        1.90530064358551        0.17828454350439
C            0.92161618566985        0.56777642065357        0.22464063862922
N            1.91853147119972       -0.28406860461095        0.30332052513097
O           13.38548623640657       -0.16050375608632       -0.54319704953213
O            6.61332325658266       -7.95887560245092       -0.01996855865588
C            5.42842372689147       -7.68570432315854       -0.03479344791698
C            4.97058235880809       -6.39204455178911       -0.00977598519694
S           -3.22081546658779        0.83640293537724        0.11099329704163
H           -4.81749760903821        3.97932003755400       -0.23788072835917
H           -5.48321616161966        2.41900510263694       -0.13910271172394
H            0.24781890785962        3.84563394538068        0.06193164111975
H            2.09997860296056        2.28256089124131        0.20381218088936
H            4.09239628265501       -7.55901032894029       -0.06729588496694
