18
 energy: -2.767079966783 gnorm: 0.000565209665 xtb: 6.5.0 (97a52f5)
N            0.93328881053216        0.66626357199335        0.68012699647496
C            2.08625307861225        1.13772920021189        0.19238181150515
N            2.42128341018677        2.35141422224783        0.63357196668885
C            3.56486878894569        2.80193111139118        0.19016696776162
C            4.02240635115179        4.04372174194291        0.40190233382549
C            5.16973648365920        4.57165405877626        0.05968574166420
C            6.19160332636770        3.96627371224674       -0.51037360134165
C            6.28401524169485        2.64656781130646       -0.52610182539428
C            6.88300902744917       -6.85879526953928       -0.59215677264383
N            5.60409565063090       -6.97127439270056       -0.43443698949847
O            4.96027423549182       -7.99830441292990       -0.36082259062440
N           -0.44174350425777       -1.77086616473506        0.20610991963125
H            2.56871350442387        0.65837925495356       -0.39779750890754
H            0.60883321459190       -0.21312753349740        0.40105779220843
H            0.23578838498440       10.02479525539589       -1.16842007641903
H           11.69953417629209        9.13651413442322       -0.33814679991998
H           11.02795773476153       -1.22228972988738       -0.59945552642989
H            7.55671208465478       -7.66237657194856       -0.68020183777085
