15
 energy: -3.295068759449 gnorm: 0.000710093926 xtb: 6.5.0 (97a52f5)
N           -3.04463774650066       -0.58339426508427       -0.04189128271333
C           -1.72160548570609       -0.16460647980528       -0.03304927758966
N           -1.52343820987523        1.18357085447422       -0.02610311569244
C           -0.29218273403064        1.60502762494676       -0.01438674836096
C            0.77389675752928        0.70529083233724       -0.00906915666709
N            2.13176441520124        0.87019518060249        0.00063744134568
C            2.63814000467268       -0.33516649144498        0.00089244579334
N            1.66758340741672       -1.31821569502882       -0.00832204125233
C            0.45716777972275       -0.66060898795402       -0.01583160810380
N           -0.79774530237819       -1.11580041832530       -0.02594838456314
H           -3.79837075584642        0.06140174553279        0.08959777381516
H           -3.28778088372026       -1.54508770850773        0.08904960888070
H           -0.10474484376704        2.66594281190853       -0.00985194792879
H            3.70283051510882       -0.52969564363997        0.00823111668941
H            1.79117308217304       -2.32860336001165       -0.01638482365275
