47
 energy: -9.354238125630 gnorm: 0.000927080250 xtb: 6.5.0 (97a52f5)
N            1.28895587707802        0.41120403560591       -0.09966455030404
C            2.63727957693518        0.21850818566903       -0.32968806885486
N            3.43107028866076        1.26404424842994       -0.54669748489466
C            4.73642911517039        1.01161430511944       -0.63543189210496
N            5.40240293234579       -0.10991061973937       -0.52073553834944
C            4.59835460660161       -1.15544805043927       -0.31752725680456
C            3.21987888685041       -1.07021091632750       -0.25714806607700
C            2.74761984908262       -2.42194247268613       -0.08104411537728
C            1.35801523926344       -2.88791937134130       -0.08879469968391
C            0.38628692428429       -2.29958226209334       -0.93047629622594
C           -0.88893163492664       -2.76956581616553       -0.96889208905517
C           -1.27740252670186       -3.87184116126180       -0.17229852746174
C           -2.58948853524257       -4.38846820346383       -0.19043003754478
C           -2.92497202507361       -5.46109132730284        0.58350821851075
C           -1.97160603611658       -6.06656016206262        1.40896192519479
C           -0.69400227339371       -5.59370588522215        1.45194935152057
C           -0.31145095424383       -4.48492559006087        0.66347409047412
C            0.99980440426534       -3.97528302887911        0.67775518254273
N            3.77799462629649       -3.25256979222221        0.01474498566040
N            4.87047765589726       -2.51325773491744       -0.14041461894634
C            6.22647696367391       -3.08381887429995       -0.05210943123926
C            7.11369814808315       -2.68508365982643       -1.24369427177495
C            8.49078564106178       -2.44333066236950       -0.60771072510756
O            9.33901451194919       -3.57795538138379       -0.69088225370835
C            8.16102392759488       -2.08994141820910        0.86867904140609
C            8.14518980919479       -0.58144122857143        1.11656692823915
O            9.38131893144358        0.03692986840541        0.82962257972882
O            6.88518714044111       -2.69661080166633        1.17352191016103
H            0.94649119241688        1.34548335919484        0.01943163034212
H            0.74145020784960       -0.25563414115393        0.41712217508070
H            5.35125678491652        1.88497309046114       -0.80935734250805
H            0.68103926198060       -1.48136614367754       -1.56414952347996
H           -1.61738794486155       -2.31152986453890       -1.61510335201750
H           -3.32429788692452       -3.92593158113888       -0.82636616106833
H           -3.93040656709256       -5.84797330754564        0.55903755915264
H           -2.25218420335547       -6.91337644705682        2.01354684657006
H            0.03886797893076       -6.06031886771951        2.08727013421390
H            1.74296749340413       -4.44543233834883        1.29497948452179
H            6.11690984687517       -4.17540120431023        0.00019775339846
H            6.72137350610572       -1.77933992255520       -1.71370379719034
H            7.16238598129054       -3.46555868565170       -2.00851969124377
H            9.02243428987313       -1.60868020371562       -1.09133696772066
H            8.92067855801819       -4.33471706363604       -0.23711131373409
H            8.90198617695352       -2.56790071823650        1.52448310484499
H            7.85145702281146       -0.35674941516905        2.14885096110881
H            7.39562664223669       -0.11550374165036        0.46957908084595
H           10.09294058809088       -0.33877902626349        1.38413512896401
