51
 energy: -11.015358343824 gnorm: 0.000917287636 xtb: 6.5.0 (97a52f5)
O            1.50545734153847        0.40817369863115       -1.09576185583262
C            2.61708605019884        0.26250120012240       -0.60974282232088
C            3.25467317081605       -1.04395877421075       -0.72194005252046
C            2.63423866030136       -2.08654688790654       -1.27992843383792
C            3.20980757437106       -3.40623700009458       -1.40239364385686
C            4.32644612021709       -3.88149301954675       -0.77192899954508
N            4.42588655868015       -5.20743708518174       -1.13940494110315
C            5.46445566353957       -6.11888974921033       -0.72194042814217
C            5.80455260985168       -7.18409437912730       -1.53968184662528
C            6.79231784644634       -8.06790035651823       -1.16420316396124
C            7.44885003516817       -7.89740387480759        0.03788163042826
C            7.11406198174080       -6.84257777198065        0.86248853005090
C            6.12684292069024       -5.95782097622397        0.48655785133178
N            3.44665601729102       -5.58689890603644       -1.96497383575119
C            2.69567215466401       -4.51719835092747       -2.15761083305028
C            1.52504638412616       -4.50580999904169       -3.04660498809755
C            0.74452439538245       -5.65158892262041       -3.17695565068455
C           -0.34811286995266       -5.66849498438270       -4.01432583729469
C           -0.67670256312784       -4.54495903475356       -4.74507206297270
C            0.09516734798047       -3.40565351184073       -4.64094918370175
C            1.18783107005542       -3.38510449765146       -3.80388959300198
C            3.31662169881313        1.35665298535337        0.08394743954143
C            4.71204530697617        1.42314904759251        0.09013130079516
O            5.43022840627989        0.46605175279053       -0.55359181561524
C            5.35992175090602        2.52977514717225        0.76388305367046
C            6.74845286027334        2.66615157175493        0.84746584357793
C            7.32051032725011        3.73975000131727        1.48113667422586
C            6.52311797759349        4.71589969366870        2.05585637247278
C            5.16185158417466        4.60598015648117        1.99330647907791
C            4.55442768738870        3.51911991737234        1.35423526136488
O            3.17337258629969        3.46547983889160        1.33829650737794
C            2.53691907764794        2.38913950211157        0.75331448654677
O            1.31764052298749        2.29275135630126        0.81647440481472
H            4.25886864499469       -1.15654968143907       -0.36152146730591
H            1.63224830703333       -1.93737447537411       -1.64023107320468
H            4.98849127995722       -3.34814256629596       -0.11343817893931
H            5.28219138011118       -7.30641505635222       -2.47226120573896
H            7.05120471973837       -8.89210179596126       -1.80839746921318
H            8.22202500292824       -8.58799843681554        0.33266710471877
H            7.62443486445631       -6.71157928849923        1.80255634964345
H            5.85560557633607       -5.14121134566958        1.13198091466996
H            1.00930115099925       -6.52585503388898       -2.60824513244452
H           -0.94633855092153       -6.56079449380683       -4.10096508078814
H           -1.53171468192299       -4.55880807290843       -5.40099358127122
H           -0.15470082371888       -2.53183228607086       -5.22018445337061
H            1.80909787159341       -2.50821806448598       -3.75377693627416
H            6.38696054468142        0.65206104305094       -0.53179532744709
H            7.39266993245307        1.92211029946468        0.41713985063565
H            8.39330150872270        3.82594997271300        1.53359632524337
H            6.97590771731068        5.55811644299896        2.55289829526132
H            4.52849729868449        5.35370505186318        2.43711521845148
