103
 energy: -22.134340675493 gnorm: 0.000733040028 xtb: 6.5.0 (97a52f5)
C            1.83561869847039       -2.02377879217252        1.86242593302535
C            3.33536681764770       -1.80983242445322        2.14093470892681
C            3.74047956283389       -0.38067689227310        1.73458072951918
C            3.57477767548550       -1.97124574743699        3.65485295924890
C            4.15372911032055       -2.82065003288711        1.32246114881519
C            5.00939292041252       -3.74275739508208        1.91430436755312
C            5.73209103591154       -4.63365009626657        1.15247467680204
C            5.62199013019378       -4.62954198132345       -0.22981403028885
N            6.38500512413488       -5.55974360863538       -1.02876815448607
C            7.70253986231850       -5.43018921215590       -1.50772735636643
C            8.57894430760548       -4.27906854687833       -1.31370623094769
C            9.90347598941295       -4.34595181716885       -1.74607732111855
C           10.77025874705026       -3.29908789109642       -1.54562132996979
C           10.34844611114788       -2.13665534964077       -0.89817420925830
C           11.29871110089470       -1.03544175277666       -0.61813136675698
C           12.06411918322084       -0.50646569929897       -1.66078323291003
C           12.97999997589341        0.52424616236408       -1.48167577860194
C           13.73467664770977        1.07102176645714       -2.63397811695324
C           13.59172916205500        2.40530010588785       -3.01214933924043
C           14.28833473484788        2.90985226985301       -4.08827001920788
C           15.13358542800635        2.09154769815991       -4.81102821719058
C           15.28011715636251        0.76513525791914       -4.45585719042972
C           14.58674592496320        0.25742094908011       -3.37887048496684
C           13.14612038423552        1.01872541536521       -0.17579007275897
C           12.38365318851656        0.50037103133303        0.89407496564548
C           11.44370021592394       -0.52257537621702        0.69350224081793
C           10.66207173910992       -1.07090278090962        1.82894518737559
C            9.69519487408326       -0.29643560114128        2.47047970534342
C            8.96289140794263       -0.81167089788366        3.51695496886497
C            9.17638085243628       -2.10899868187352        3.93905454807182
C           10.12493566784052       -2.89203201669119        3.31143722362222
C           10.86199008979084       -2.37997431080313        2.26680902529196
C           12.81104709071871        1.16937600562053        2.12853088915155
C           12.48094351006248        1.08990119318127        3.46464259889639
C           13.15588034743196        1.90576486798203        4.38662292435796
C           14.14644147256485        2.78062209103415        4.00245825617177
C           14.52279405689843        2.88676201232395        2.64236321017656
C           15.52998832191545        3.70385515691447        2.07647843392743
C           15.78456828744703        3.66181793848169        0.72429029133340
C           15.06905724626253        2.82470992921509       -0.14648338274878
C           14.07094337480227        2.02041062796148        0.36269082838832
C           13.82516376562717        2.06980007657022        1.74945929547243
C            9.01593836766206       -2.05687803082372       -0.49239188619091
C            8.15329042107636       -3.10406083067481       -0.69446361742672
N            8.09261057266235       -6.52336370941929       -2.15228850041249
C            7.04969132336436       -7.38356917497616       -2.11046422393556
C            6.96646025247126       -8.72002241161790       -2.64505621694277
C            8.04746826003458       -9.28769829920383       -3.32374827936856
C            7.96642189146437      -10.56013006934048       -3.82340063006042
C            6.80135118776902      -11.29473837868995       -3.65547813151633
C            5.72753056115072      -10.75504301009615       -2.99202749944395
C            5.77261431078889       -9.45595371999146       -2.46646353904481
C            4.64023651130264       -8.85694376068795       -1.75015773521151
C            3.43397210415733       -9.54460517718966       -1.55537642629339
C            2.38358809985628       -8.97090302250066       -0.88404776489715
C            2.49455376873788       -7.68490882487176       -0.37665393564838
C            3.65713346298415       -6.98376603647834       -0.54680992131561
C            4.74271218186382       -7.54407566552624       -1.22879590575016
C            5.97254066196951       -6.82122863186230       -1.42162886774687
C            4.76899636152981       -3.71564721686120       -0.82981516488891
C            4.04953795978490       -2.82698207476665       -0.06310058571637
H            1.22805274908952       -1.33426904919691        2.44783839160712
H            1.53779699174017       -3.03946272586013        2.12124704499606
H            1.60024882330759       -1.86360012760425        0.81128365248528
H            3.19073152628514        0.36013808474374        2.31440244584189
H            3.53730674705701       -0.19609628559077        0.68068396889593
H            4.80477260404250       -0.21961483295148        1.90328698870158
H            2.98263740513969       -1.25069764293871        4.21844559728747
H            4.62147000608070       -1.80469817535483        3.90691047790152
H            3.29042278689983       -2.96729384300124        3.99279641131392
H            5.11575956971082       -3.76667882055138        2.98406656272222
H            6.39572003575924       -5.34185970227717        1.61743926360018
H           10.24181751807390       -5.24432095224795       -2.23174819969287
H           11.79552866776360       -3.37524262135630       -1.86463920247313
H           11.92513025657208       -0.90130890571155       -2.65102212659449
H           12.92686652490288        3.03760145099798       -2.44887661440909
H           14.17132889021917        3.94430094156272       -4.36767532427747
H           15.67610303528568        2.48686430812777       -5.65440903273110
H           15.93717773281531        0.12566612999764       -5.02261499130073
H           14.69947435235347       -0.77550918994708       -3.09733123843847
H            9.52877311425759        0.71241680083854        2.13362925012098
H            8.22189752145566       -0.20119112532421        4.00677175463613
H            8.60182140832729       -2.51085111135849        4.75767044365331
H           10.28809624474679       -3.90603735837201        3.63844815585924
H           11.60062886641952       -2.98683348100347        1.77196259718397
H           11.71857322978291        0.40569091083451        3.78845978544545
H           12.88903303792097        1.83992843576521        5.42861814253530
H           14.65133636720150        3.38993035800966        4.73154875346574
H           16.09743278293876        4.35216646963695        2.72104755156137
H           16.56112226326045        4.28879610001479        0.31791529481989
H           15.29355770261427        2.80000545670833       -1.19688511837316
H            8.67381564653196       -1.16144935431694       -0.00294472816710
H            7.13696099055336       -3.01815133287669       -0.36349301863302
H            8.94502949137824       -8.70683450211646       -3.44540351877533
H            8.80535052317445      -10.99065855164275       -4.34554236349542
H            6.74094859102057      -12.29631423115090       -4.04946211124743
H            4.83854143534133      -11.34743876696565       -2.87574733242695
H            3.32093618196446      -10.54246411972457       -1.93781527223867
H            1.46650295062954       -9.52105443548441       -0.74876901897975
H            1.66653520510120       -7.23912651254711        0.15025362632993
H            3.74312525205544       -5.98799964937305       -0.15451763019195
H            4.68222831387641       -3.71214477047807       -1.90246755401012
H            3.39460709512339       -2.12306887478589       -0.54641621538113
