37
 energy: -7.711677764165 gnorm: 0.000569313886 xtb: 6.5.0 (97a52f5)
O            1.11430006369048        0.32021993619844        0.71406628350931
C            2.25219240267051        0.16501573779056        0.31373170154350
N            2.82263146359149        1.03111254672045       -0.61682190788731
N            2.15659968389977        2.11299683203184       -1.02841579443769
C            2.65465488753183        2.89450889740413       -1.91975396617451
C            2.04576840454296        4.09861805782426       -2.40847986786721
C            2.67322660605893        4.81560749471755       -3.42694084482919
C            2.12698408918818        5.97631542875050       -3.92364068445639
C            0.93626380233156        6.45311191854477       -3.41248813453597
C            0.29319022902294        5.77076856784903       -2.40613462420399
C            0.82198749333908        4.59031598391166       -1.88130757768689
O            0.17237748900842        3.91896891684515       -0.86848599761647
C            3.10876225230531       -0.94088820113750        0.80685871678899
C            4.30783659514687       -0.65702159510450        1.40724142629547
C            5.14065053127818       -1.67492264675759        1.90823050654232
C            6.37208063588700       -1.39462949616740        2.53855717549455
C            7.15197642996030       -2.40423223727422        3.01711097378177
C            6.74407622800634       -3.73724260434301        2.89040563308657
C            5.56145251014247       -4.04410196524157        2.28779171188804
C            4.72499521327286       -3.02366812019742        1.78158911660612
C            3.49816162296764       -3.30560523141507        1.15799915166166
C            2.68635840213651       -2.30132492425835        0.66684656141134
O            1.49735558063790       -2.58155531808862        0.03364326009381
H            3.77801390114653        0.88490820151139       -0.93168898644849
H            3.60477125650289        2.61456505840268       -2.33988598980308
H            3.60175646924515        4.44756893527811       -3.82877945731883
H            2.62855525511921        6.51388087129820       -4.71142305804732
H            0.51094003740234        7.36335070326895       -3.80246463955746
H           -0.63201289941845        6.14921401353588       -2.01042078075407
H           -0.64922855991944        4.38359612029889       -0.61574720944696
H            4.61291271072726        0.36830006269962        1.51086996565144
H            6.68706866429779       -0.37035238198282        2.63768766721719
H            8.08954225400382       -2.17800817030799        3.49775036074140
H            7.37301216437807       -4.52410590811889        3.27309605431666
H            5.25056786264883       -5.06982668310527        2.19093287153427
H            3.18902845634103       -4.32863934147083        1.05746850966301
H            1.33779981090948       -3.54488945991038        0.01347187324404
