32
 energy: -6.641330208982 gnorm: 0.000773282864 xtb: 6.5.0 (97a52f5)
O            1.09622669387135       -0.22245285860299        0.37945832536482
C            2.30353897154894       -0.10074466767866        0.30196254988762
N            3.00120297008952        0.71630121473099        1.18681766924945
N            2.33269389663475        1.40140196512217        2.11499755187381
C            2.91724024035227        2.27754046513140        2.85196288482276
C            2.27887046662623        3.04729423697389        3.87994414263484
C            3.00787818064438        4.01792098353584        4.56579936685813
C            2.42866003055980        4.77702615476145        5.55551177129690
C            1.10281172478790        4.58444636678791        5.88820611516757
C            0.35644886013443        3.63399249878539        5.23286715929732
C            0.91542719019754        2.84784152839970        4.22454596189960
O            0.16671330282500        1.89405005446962        3.57465727496088
C            3.05811883734136       -0.80850559919892       -0.75516805815641
C            4.40088269928640       -1.14069416853610       -0.60463822650693
C            5.06853951384956       -1.80995328000247       -1.60267480890521
C            4.41195516858291       -2.16488366001748       -2.76611092271190
N            5.12296305818619       -2.88345532728834       -3.82180183892536
O            6.30605135216607       -3.19866550464317       -3.63302075339171
O            4.51740305432097       -3.15375121066908       -4.86826922353157
C            3.07578083366531       -1.84711799124560       -2.92008624998004
C            2.40494521664581       -1.17908694033379       -1.92372527822410
H            3.97556925287180        0.94707898722022        1.01291064574112
H            3.96437223764147        2.45083586096040        2.67460736572736
H            4.04213207333641        4.17317735868179        4.30967473310798
H            3.00974509972677        5.52396820925298        6.07164581817504
H            0.65189937422272        5.18089328060688        6.66477826251975
H           -0.67466811406742        3.48734965495808        5.50005647593765
H           -0.74868668332774        1.87365008207835        3.90945214415478
H            4.91111590365211       -0.89243102332144        0.30952036182395
H            6.10689573182581       -2.07421395113246       -1.49201687631919
H            2.57394321378148       -2.13495291930153       -3.82873366555322
H            1.36095964801565       -0.93568980048627       -2.03115067829635
