30
 energy: -6.176555936616 gnorm: 0.000810668492 xtb: 6.5.0 (97a52f5)
O            1.16343802105039       -0.40480270574089        0.08272404268905
C            2.34808376127928       -0.12762589882266        0.09929919025156
N            2.99242292864077        0.22999824578904        1.28155274794339
N            2.31647564208905        0.25090911528739        2.43459429752001
C            2.85880034508641        0.69385883875727        3.51255640035572
C            2.23505059293049        0.72599614583614        4.80521338551509
C            2.93661608831430        1.25136039176867        5.88986420022072
C            2.37878627039829        1.29640510918128        7.14689077448965
C            1.10144047052690        0.81542099371269        7.35326136099732
C            0.38329425556754        0.28953898220631        6.30426246758957
C            0.92170321383596        0.22939397222204        5.01815869005506
O            0.19302668159775       -0.30604630918715        3.97781465575682
C            3.14322308200265       -0.14498100966362       -1.15042503663924
C            4.50844104025022       -0.40813370504807       -1.14440820856196
C            5.22207198702015       -0.42695940596778       -2.32215488433044
C            4.58453244082656       -0.18683563808346       -3.52244992606173
C            3.22831502109575        0.06746609073305       -3.54265724264806
C            2.51336566261839        0.08565414951046       -2.36582725079633
H            3.94507562025252        0.58322446766779        1.26150771558935
H            3.86526715570643        1.06641362261430        3.43845225852583
H            3.93329175361894        1.62710912431232        5.73360677695641
H            2.93916386324118        1.70640390326022        7.97098517360175
H            0.66663445035936        0.85048246138635        8.33874711539540
H           -0.61034755928941       -0.08542908573105        6.47157756854175
H           -0.67917601158401       -0.61669051942491        4.29008625793650
H            5.00272396758440       -0.61873861967423       -0.21251961250583
H            6.27967799272411       -0.63331643766485       -2.30709210909956
H            5.14407771319535       -0.20183225710981       -4.44328282763031
H            2.72831888369067        0.25065356140757       -4.47948241044396
H            1.45397466537035        0.27778241646536       -2.37054557121128
