71
 energy: -14.026158186359 gnorm: 0.000582123794 xtb: 6.5.0 (97a52f5)
O            1.43087687037092       -0.33879393692499       -0.33400262744682
C            2.41436915380043        0.09171937803368        0.25295868662777
N            2.61753927247738        1.45670189233729        0.39992232951885
C            1.80909144076413        2.40966756077950       -0.33752769260037
C            2.37443086470363        2.70198928701709       -1.68968839531707
C            2.19869184545165        1.79753201271220       -2.72324910759926
C            2.74839006628292        2.03214769768388       -3.96608867410925
C            3.48848735438594        3.17494203837524       -4.18652732779326
C            3.68049458380721        4.07802146815452       -3.16159050309014
C            3.12969419436607        3.84097097479464       -1.91893676446331
C            3.43221935697153       -0.79095419180625        0.84589781900482
S            4.26077365347093       -0.27022578144307        2.28363899967982
C            5.22554975098236       -1.70842913699057        2.37013844802797
C            6.21400295078131       -1.96330927695760        3.38454474615804
C            7.01911262082498       -3.06822303147889        3.47589476586114
C            7.90651509530271       -3.04472001857130        4.57356416664288
C            7.80227804796601       -1.92239394659996        5.35283249478004
C            8.57700650747500       -1.62443938309585        6.52836946924377
C            9.58015529349237       -2.39334399622978        7.05504628588005
C           10.18623233648911       -1.85704710837416        8.22070148520106
C           11.28801807085188       -2.55097930257871        8.99262733819678
C           12.05492366247284       -3.70295156654600        8.33718816691649
C           12.71625800564278       -2.35733928887728        8.48122304574488
C            9.63157625316937       -0.65988620122927        8.60050686395945
C           10.00146258335476        0.16146299210565        9.76316347269660
O            9.15200692619794        0.78773317021156       10.38301678481297
N           11.33945462178806        0.20716030064747       10.11573069484422
C           11.81331341850851        1.05999568807091       11.18579627305901
C           13.23370394359367        0.77015330694907       11.55564643661578
C           13.57508119743768       -0.47383266772728       12.05927084369637
C           14.88516831371418       -0.77070999167231       12.37295260991340
C           15.87046193738607        0.17567189278947       12.18436264016678
C           15.54347526260361        1.41696091106192       11.67974080133318
C           14.23299392167430        1.71181060224992       11.36485360198862
S            8.36513985509415       -0.20281214516090        7.50611131547499
S            6.56766298158851       -0.87630874477432        4.70203645892411
C            4.89487992100765       -2.53169792257037        1.32884013597188
C            3.88957954484989       -2.03069339160035        0.45752119593118
C            3.50006419368031       -2.85952144092555       -0.75575442323146
C            2.02621038423816       -2.98466989477109       -1.12866902663967
C            2.95253675281456       -2.16504364680032       -1.99847697901891
H            3.53197628097787        1.80515018325477        0.69129405616367
H            1.70259932043879        3.33176014107537        0.24382305596277
H            0.80214205289311        1.99199985986389       -0.43858927489091
H            1.63430630124326        0.90054511440434       -2.53597585301027
H            2.60298185390379        1.32131476135131       -4.76291770991005
H            3.91872738374905        3.36048450577837       -5.15706844683004
H            4.26360999266721        4.96848040426838       -3.33055550846443
H            3.28664604733351        4.53934910900275       -1.11489047362565
H            6.98278284280777       -3.88140909286512        2.76804359824458
H            8.60444347073602       -3.84074141880271        4.78069126293140
H            9.87415512898220       -3.33484097936138        6.62262074588436
H           11.12412133619394       -2.58568509605895       10.07471524879763
H           11.76567692671868       -4.03072412297838        7.33863395799339
H           12.39780108107431       -4.52497493918075        8.96879210679336
H           12.85485908403110       -1.74427646627178        7.58936693515284
H           13.52261052832716       -2.24328853992874        9.20894094780941
H           12.06181855017654       -0.13417575325688        9.48101520239412
H           11.16282928519972        0.91461361546066       12.05401885762532
H           11.69582772756120        2.10477257583058       10.88137749989212
H           12.80325268843304       -1.21188625496936       12.19539998137153
H           15.13849319323878       -1.74276043629842       12.76329803232653
H           16.89427218506975       -0.05472702788634       12.42970115166684
H           16.31246542221758        2.15689194621741       11.52927886403355
H           13.97805327414424        2.67754623951362       10.96339151779453
H            5.36679772829508       -3.48794399534765        1.17001021190810
H            4.13608408091687       -3.73797853344144       -0.90710561562862
H            1.29937292731066       -2.46476166534500       -0.50384591876825
H            1.66113320624439       -3.94309561114903       -1.50367846805333
H            2.87430846035153       -1.07848135356579       -1.97440710528707
H            3.23233862686909       -2.55138232959385       -2.98083571575745
