107
 energy: -22.918760858856 gnorm: 0.000710839690 xtb: 6.5.0 (97a52f5)
C            3.13507526611144        2.13288432629965        0.73495055316584
C            4.27363314386294        1.85154080883279       -0.26349750115938
C            5.61215114407850        2.20423530434835        0.41410189681667
C            4.29149210796715        0.35358824299691       -0.62151639541320
C            4.04417318879071        2.67749583125712       -1.53887691109113
C            4.95128406291308        3.63196359496323       -1.98546479360663
C            4.71061675560976        4.36394687708541       -3.12704334131501
C            3.54944557518988        4.16426563582772       -3.85901827698232
N            3.28259326745686        4.93861425125103       -5.04870372245242
C            2.45946218020626        6.07348127161669       -5.17729728140912
C            1.75873150365914        6.74915822507358       -4.08827778870283
C            0.76152717873903        7.67864579831288       -4.38306913936561
C            0.09649693997178        8.34691924783227       -3.38394113927562
C            0.41105271784370        8.12305346913101       -2.04258483744770
C           -0.28872669760740        8.86388415978158       -0.96364512192698
C           -1.67279417191668        8.77827437080883       -0.87746953743074
C           -2.38776649813976        9.34801253804589        0.15814189007194
C           -3.86826430961273        9.26032784958895        0.09150875996092
C           -4.50846662627756        8.02276424242503        0.02979350677750
C           -5.88256457642936        7.94506764706149       -0.03103716268517
C           -6.64217323231877        9.09824770073018       -0.04035545189116
C           -6.02429993092651       10.33224216905797        0.00786406221149
C           -4.65064129304164       10.41481854260848        0.07021132000027
C           -1.68543148006039       10.05109870553225        1.18277132446942
C           -2.31590872477044       10.42175284386415        2.45359388891446
C           -3.52012193737782        9.84229125429547        2.88196654318186
C           -4.08764676268229       10.15268508831917        4.08917729090680
C           -3.45735693151941       11.04608634881634        4.93602801046126
C           -2.26086023060230       11.60416430394717        4.56806222196334
C           -1.65855006685860       11.30440058408280        3.33710402782469
C           -0.36804475992384       11.87222546259070        2.96339636081690
C            0.21496475401300       12.90746053048692        3.70955366225087
C            1.40470169974060       13.47751645472981        3.33904176974889
C            2.04679694738855       13.04061474459739        2.19540774521664
C            1.49867222220488       12.03042365271861        1.45000884778410
C            0.30299519651535       11.39487865494903        1.81658822363063
C           -0.30894499570360       10.34559453084775        0.98845803906059
C            0.41102834304096        9.65712767856918       -0.03350757535681
C            1.89405147757745        9.68493299102849       -0.11565242370820
C            2.67380436032039        9.19436132229907        0.93283656293463
C            4.04846352422122        9.20021400427990        0.84928809980067
C            4.67223414137983        9.69246563076925       -0.28022513688614
C            3.91729580598560       10.17915787151725       -1.32907267109497
C            2.54260396622748       10.17509495570200       -1.25073419314779
C            1.40423951414394        7.18853842435969       -1.74631962093157
C            2.06374462134193        6.52012022717819       -2.74666167068075
N            2.37692943231772        6.47265579683531       -6.44030138452993
C            3.14300769107175        5.62102502776088       -7.15938841069356
C            3.38722157003801        5.61453465457476       -8.58078692843047
C            2.80969337563020        6.57797529960782       -9.41123554311612
C            3.04848181563530        6.57018453909270      -10.75973051452314
C            3.87150242063329        5.59792618784736      -11.30961932653106
C            4.44726486805843        4.64108202339061      -10.51115837828508
C            4.22573340408386        4.61577112227028       -9.12687603085211
C            4.82540139848207        3.60064100201821       -8.25269751418483
C            5.66093797286324        2.58988697058795       -8.74879807625189
C            6.20793169845272        1.64268311201189       -7.92009814477913
C            5.94308664936816        1.66515388986430       -6.55885079198115
C            5.13452680883926        2.63883836383261       -6.03867343160316
C            4.56624279976513        3.61810654413673       -6.86041043152262
C            3.71643788479149        4.65280779059001       -6.33142678695115
C            2.64109887971464        3.21155813379088       -3.42466466150523
C            2.88726305103915        2.48254379037867       -2.28314763863060
H            3.28226432537053        1.57749645914221        1.66075798313655
H            2.16818625546600        1.84517744158342        0.32450638015863
H            3.09210224159255        3.19357842034155        0.98067065577144
H            5.75786253021100        1.60810190200515        1.31459654010831
H            5.63979888301263        3.25352541738168        0.70627610951811
H            6.45233705748292        2.00655615304906       -0.25086852285379
H            4.47077271254462       -0.25626949049922        0.26347190345337
H            5.07868601266397        0.13989900972565       -1.34393029835269
H            3.34405987301620        0.03810523311859       -1.05607869009548
H            5.85861674760979        3.80839407206546       -1.43590303993857
H            5.41676526198738        5.10238573842896       -3.46521910706550
H            0.52218004569437        7.86771703929394       -5.41479735803301
H           -0.66659932872302        9.06636436390093       -3.62648734814637
H           -2.20411626274417        8.22874524226424       -1.63393371605660
H           -3.91329153306196        7.12573989694464        0.04189370777747
H           -6.36548705432400        6.98223386676050       -0.07108484670579
H           -7.71718898798008        9.03512584919916       -0.08733806829566
H           -6.61731027745623       11.23224611287475       -0.00230222301502
H           -4.16385622076813       11.37417292881758        0.10968775717988
H           -4.00234792778842        9.11101705915280        2.26224459208037
H           -5.01824097708563        9.69521744937081        4.38402719352824
H           -3.89940031662220       11.28908883768136        5.88878019418206
H           -1.76952170549123       12.26657637279077        5.25687318874283
H           -0.28756519781759       13.28794082674827        4.57980497769048
H            1.83099172252577       14.27531128083263        3.92557021124363
H            2.97146028464631       13.50127557342701        1.88715813158565
H            1.99155975057810       11.74247615383368        0.54207758490680
H            2.18274443650376        8.80990450066327        1.81022787916415
H            4.63846427523673        8.81947015395138        1.66699995989468
H            5.74821399427099        9.69561148027023       -0.34386447209132
H            4.40447513569022       10.55929594028228       -2.21219498932236
H            1.95006788563020       10.54880093055939       -2.06804899259045
H            1.65410797843389        7.00438851533691       -0.71567581550918
H            2.83747820754908        5.82100183312290       -2.49429596013033
H            2.17381082957220        7.32673739253230       -8.97218850233887
H            2.59954288702642        7.31787770767802      -11.39314140616457
H            4.05910491670311        5.59566325552018      -12.37113383185014
H            5.07923199095866        3.89965227435824      -10.96467989986123
H            5.88386552171853        2.54977244358329       -9.79924337655441
H            6.84715505826628        0.87596145391121       -8.32701403890911
H            6.37528714915595        0.91817479341376       -5.91298079142989
H            4.93005591600186        2.65815549492080       -4.98479253944012
H            1.74038518178427        3.05646152571539       -3.99271219227812
H            2.16770061948689        1.75091847530327       -1.95920384248853
