68
 energy: -10.855696695277 gnorm: 0.000652180998 xtb: 6.5.0 (97a52f5)
O            1.90646226973265        1.15316101367280        0.92335577660429
C            2.92312606917014        0.47898155366857        0.82789827035108
O            3.59313250360314        0.01257524319328        1.92289681944946
C            3.39084592822984        0.19681654319047       -0.52556827079733
C            4.46757433742188       -0.62112369424714       -0.83660118800631
C            4.88777391565390       -0.83300819741114       -2.13768285597090
C            5.98948195967057       -1.68634049097887       -2.36535845219593
C            6.55007101655912       -1.95593851916487       -3.57663460553457
N            7.61542855256897       -2.81972909462771       -3.76926791811262
C            8.25422809083658       -3.07233144465558       -5.00839801686663
C            7.96210446187270       -2.59723822133135       -6.27210708132759
C            8.72275119825018       -3.00726209786188       -7.36912159475215
O            8.36893228747685       -2.51096218383978       -8.63524252450956
C            9.80057085867302       -3.91255078305965       -7.17858097296384
C           10.64291741942933       -4.42281827574747       -8.31310863038484
C           10.97577533743023       -3.39353270301823       -9.41758295047534
O           11.01737343381751       -2.06322821030464       -8.88072557519241
C           11.52800846035816       -1.05623941966814       -9.77567426596116
C           10.80368881423941        0.25036708448393       -9.46213212235872
O            9.41630254973315        0.07747637407886       -9.62470935662706
C           11.38409696228487       -1.45028288185327      -11.27865905154570
O           12.47489634755127       -2.23212659985961      -11.70404411127958
C           10.07658230190485       -2.23237407954853      -11.55537352641904
O           10.09592471645158       -2.65850904566469      -12.89758712220785
C            9.97425358149479       -3.47622657349644      -10.61258151107110
O           10.13598298794236       -4.66353626424427      -11.35235344377497
C           10.07063334486751       -4.37910959554908       -5.89882716662218
C            9.31210535607311       -3.96738009082796       -4.82443049332489
C            9.41869867481505       -4.34360473231004       -3.37622891415056
C            8.24351317795622       -3.62002069668374       -2.68200896076342
C            8.71127713615520       -2.73817747566692       -1.54380580231512
O            9.40101612934861       -1.78254053072835       -1.81644672624453
O            8.32482535729213       -3.06516463811070       -0.28441387880449
C            4.19131678698695       -0.14408095189349       -3.27773241092510
C            2.76847043663620        0.35086003800485       -2.94063786723784
C            1.74052390483803       -0.73434510260685       -3.20624730807373
O            1.94321064181576       -1.82981165951010       -2.73527876112328
O            0.64894900505385       -0.41918241443309       -3.94535539057262
N            2.66529894766811        0.77725101410679       -1.53915472666652
H            4.40449402206904       -0.47858644908325        1.70910333605846
H            4.99714874370111       -1.12528042604834       -0.05079037134486
H            6.43795479536766       -2.13749312419696       -1.49925822713115
H            6.16569122177164       -1.47071723866127       -4.45348965359866
H            7.14238124162638       -1.92353769013159       -6.43121962223855
H            8.81908134070083       -1.65208897526875       -8.85858055549892
H           10.15279261957529       -5.29253334241948       -8.76415990784082
H           11.58241779520047       -4.79580569282192       -7.88927527793596
H           11.98434410426634       -3.57931706702809       -9.82020714113367
H           12.60210956317477       -0.97807497343074       -9.54387268080699
H           10.98649239810306        0.53513905348954       -8.41785977703980
H           11.15519626867291        1.06003658304035      -10.11429739801352
H            8.93612971115817        0.91925226325834       -9.54026088046127
H           11.39341662411532       -0.53303184431842      -11.89044648458651
H           12.32532338582602       -2.50777479189670      -12.62798859471791
H            9.21456605092330       -1.55888799186803      -11.42187496384456
H            9.43690997012543       -3.36446374589390      -13.03342708634730
H            8.95964329213099       -3.55709327653144      -10.19723832812292
H           11.02230369083207       -4.69269897219416      -11.75221206608259
H           10.87502732463529       -5.07376840936418       -5.73622614649582
H           10.37249478542180       -3.99339468889787       -2.96749169456476
H            9.37388962815169       -5.43121906386238       -3.24922064462649
H            7.48970122307183       -4.33862802680332       -2.33366520089075
H            7.84425728146280       -3.91086063437949       -0.23563134845155
H            4.11650169866103       -0.83852487826960       -4.12135525968693
H            4.81386822647777        0.69435219768621       -3.61138735192278
H            2.53796448949643        1.22580435271906       -3.56700928127941
H            0.63671632282503        0.50751472100934       -4.24077407668780
H            1.78197691854263        1.22838993670449       -1.28270062598118
