44
 energy: -7.344594769682 gnorm: 0.000259688107 xtb: 6.5.0 (97a52f5)
O            1.04653001467136        0.58736080590378        0.31839838264959
C            2.25530807231425        0.50824907582523        0.38906460007633
O            3.09155891323345        1.46664832801739       -0.08897126032753
C            2.82540104543166       -0.71533335481556        1.00721365835115
C            3.90780312519539       -0.67626100640526        1.89138451006807
C            4.30034877621486       -1.78159817916659        2.62066967861803
C            5.38106606125249       -1.66147375524858        3.51339289526437
C            5.86769243040858       -2.64558266523722        4.33922132527103
N            6.87636196961868       -2.44184149027801        5.21840599203102
C            7.50066230112457       -3.38829366467918        6.06615796744346
C            8.14024954928515       -2.96860763136919        7.24413933547155
C            8.75338837346773       -3.87130266625331        8.06620007212230
C            8.76883667384821       -5.23436320117388        7.75073702489695
C            9.40154940492684       -6.20901120313794        8.58065471739838
C           10.06316559246161       -5.79516074917725        9.87868119732402
F           10.98013822792235       -4.85569525155279        9.61760064475811
F            9.12876877673920       -5.29535297584815       10.69684638238355
F           10.64286581175823       -6.86457746544037       10.43893446333007
C            9.39298286121429       -7.49622024537397        8.20659749904060
C            8.75446381859235       -7.92413819903438        6.98025856616391
O            8.78836901090162       -9.10790752356783        6.69659255371911
O            8.13614647392676       -6.99773023183610        6.18383940639459
C            8.14423280694784       -5.67202966043953        6.56669022254686
C            7.51608807328861       -4.73479033584332        5.74751142219808
C            3.50275329475835       -3.05770207083725        2.50730071151647
C            2.73988563977287       -3.19038597757212        1.17217619687728
C            1.57644540276430       -4.16283056253275        1.25861097796290
O            0.46978720905108       -3.68401977919087        1.33671579919144
O            1.82152719160326       -5.49272161100214        1.25215149022702
N            2.23366653357447       -1.88397396456412        0.73819152033631
H            4.03040746653635        1.22230826374694       -0.08403868058430
H            4.39649223908898        0.26700139262988        2.06921491995442
H            5.87325923917922       -0.70413133398755        3.55728072207284
H            5.41243962368948       -3.62034390282290        4.34025820039172
H            7.22435512717737       -1.48799745594783        5.29915900569654
H            8.12957999490781       -1.92223388941951        7.50456573439396
H            9.24194939317835       -3.54383696614037        8.97279317475093
H            9.87009488339360       -8.23728766604501        8.82737558502053
H            7.07392480161866       -5.08563114890194        4.83188176642017
H            2.77409787996964       -3.08874201793885        3.32709839499935
H            4.16263343196559       -3.92200580482489        2.63823563943793
H            3.43451488581900       -3.52051714345295        0.38270212321587
H            2.75488819157071       -5.73678847331148        1.14814160768847
H            1.31170940563682       -1.94282664176628        0.28808385323238
