80
 energy: -14.250921350143 gnorm: 0.000984865674 xtb: 6.5.0 (97a52f5)
O            4.03349739322431       -0.95583631432454        0.78121024638458
C            3.75896855247019       -0.45024492825470       -0.28627065858506
O            3.09579256498336       -1.08972233621627       -1.28602143172828
C            4.20223772792193        0.96656329988610       -0.53538924894125
C            5.66933158375827        1.03466752448444       -0.94139334739053
C            6.15919323498874        2.46173135870118       -1.18591981559746
C            7.62632875272824        2.52854338577565       -1.61053318355277
C            8.10623644908970        3.94740566892334       -1.87514071044448
N            9.49981522305719        3.97985332969286       -2.33930235580758
C            9.92486095701350        3.89476411958659       -3.65742346164876
C            9.06358526171850        3.75863745355703       -4.76256655474429
C            9.29718512350806        4.20015472032991       -6.05902503451574
C           10.31226720303654        5.06309282599077       -6.41918539225819
C           10.59006711839166        5.58069867208940       -7.68692363328336
N            9.90171626827102        5.45399095730668       -8.89012433879289
C            8.61276436776928        4.79450865598897       -9.14258261914000
C            7.44629220329508        5.58311495780658       -8.56202998849460
C            6.10527378806876        4.86054092011341       -8.69078729531959
C            4.95533144703957        5.61277896167141       -8.02180334397287
C            3.62217342319196        4.88233868986609       -8.12274399507088
C            2.52890148151248        5.62012713114143       -7.39718853658953
O            2.50010141649700        5.54993890240685       -6.18699726494658
O            1.64886441137440        6.34132513066208       -8.14100328101183
C           10.54834302086120        6.20789470457084       -9.90023189192920
C           10.32609355104760        6.47057732183803      -11.23957448430150
C           11.22496714528860        7.29517105276939      -11.92681730236080
C           12.32629548091717        7.85808052109274      -11.31710858104937
C           12.58595794988612        7.61795918908850       -9.94953500459027
C           13.64873759248077        8.10331992360524       -9.15524862964699
C           13.73697632557391        7.76118062945572       -7.82290417243943
C           12.79622205840342        6.93346593418793       -7.19801300339984
C           11.73908527440505        6.43984094749259       -7.94315692295575
C           11.66942636972105        6.79304667124501       -9.29517246554560
C           11.38652306918820        3.96558543201283       -3.63487988686125
C           12.41897161616667        3.81858917699338       -4.54791517858031
C           13.74416753150835        3.91008489283846       -4.10626235919462
C           14.06710674330621        4.11458079948650       -2.78287576936049
C           13.04980102020349        4.22077366355382       -1.80940607951863
C           13.18589738881938        4.36872384629681       -0.41072277069140
C           12.07154926317332        4.40109607205754        0.40077553968854
C           10.77216231657327        4.28712102833540       -0.10660595963561
C           10.59986923791099        4.14909924298004       -1.47057051023658
C           11.74036452034001        4.13603885134371       -2.28751659794322
H            2.97685487373900       -0.51862199122675       -2.06833265659376
H            4.04062846229587        1.54715674111252        0.37738545042023
H            3.57261532092416        1.43170057807596       -1.29848918220980
H            5.82855400425980        0.43026674553661       -1.84151936617686
H            6.28227037839655        0.55995692348439       -0.16634474735907
H            6.01053967779745        3.06212439356151       -0.28128883563974
H            5.53475282514300        2.93630582677464       -1.95147855852030
H            7.77993363082483        1.91989188531894       -2.50843344240950
H            8.25931503156172        2.06744343082669       -0.84406216280054
H            8.02593928028488        4.55794939252812       -0.97208186433824
H            7.47960169203739        4.43661747534313       -2.62534772487631
H            8.10400278354825        3.30775234668805       -4.56695981828478
H            8.59391975155611        3.90118679654710       -6.81186329036369
H           10.94422149775483        5.41789118245967       -5.62652917031757
H            8.65474970708452        3.77686968150191       -8.74935240565297
H            8.48741986171841        4.67550015834999      -10.22168742420435
H            7.39188652767100        6.56389558608028       -9.04810975386190
H            7.64457027315433        5.80702650690125       -7.50839427945033
H            6.18611655601480        3.85847646635979       -8.25462394057906
H            5.87467250445445        4.69494550299671       -9.74922250188774
H            4.86212313135193        6.61339590586745       -8.45862714175504
H            5.19165334053080        5.78349089147459       -6.96496726170458
H            3.71181123458249        3.88214879027145       -7.68930899699649
H            3.34937836434858        4.72901725845455       -9.17004687740457
H            1.84150063856098        6.27811223538727       -9.09532753023688
H            9.47619071054623        6.04471387938964      -11.74081229749263
H           11.04771158704319        7.49564014459336      -12.97043404920838
H           12.99842023852823        8.48635018533816      -11.87430224345399
H           14.38753140755476        8.74235135007157       -9.60556144086597
H           14.55773764973160        8.14286554736931       -7.23867547008284
H           12.88949817871611        6.67683979296238       -6.15824681496130
H           12.20200658012848        3.60251964167287       -5.57826037986415
H           14.53739886282315        3.80603981222487       -4.82782762424583
H           15.09553877308946        4.17309731432978       -2.47326035371217
H           14.17209546776296        4.44635334633694        0.01153214942517
H           12.20360795352783        4.51077388823632        1.46439847592222
H            9.91867781235665        4.29999139842256        0.54652080760854
