42
 energy: -8.000684225553 gnorm: 0.000574984589 xtb: 6.5.0 (97a52f5)
O            1.85721484764109        1.84789403802620       -1.13355688111128
C            2.14549154285914        0.86109380123472       -0.48922383933253
O            1.82258082931177       -0.41016545478901       -0.84961499457738
C            2.93827055643857        1.04528083996261        0.77787991259840
C            4.43628058372445        1.09933998473683        0.50398410244985
C            5.27088365740757        1.30953517092261        1.76767500302133
C            6.77340437088013        1.35041500568665        1.49124211476698
C            7.60874409905268        1.55961135390355        2.74648242526013
N            9.05443889093411        1.58537934034940        2.45321735540525
C            9.67928631315344        2.81786836756146        2.17101225145685
C            8.95786834521346        4.01058160512408        2.02874538124230
C            9.59536555683569        5.20101604755594        1.76876545269265
C           10.97118593445752        5.24025120639004        1.63731360629468
Br          11.85119122463172        6.86794490745992        1.28211204246919
C           11.70253840850247        4.08948309732721        1.75966333549225
C           11.07746281851914        2.87201889193591        2.02025427382523
C           11.88345970151420        1.66036937981487        2.12118800034929
O           13.10163926473173        1.69934709350677        2.03427607990721
C           11.17790939326111        0.39837617566831        2.31442092966533
C           11.89973363328275       -0.79289341920707        2.33856205939323
C           11.26347134241199       -1.99442991580515        2.49905435888825
Br          12.27136351303900       -3.58598745109774        2.52285974333310
C            9.88834056533585       -2.03366078938878        2.63763627519783
C            9.15613318822905       -0.86997773246043        2.62075587396807
C            9.77901505048200        0.37551331477758        2.46568171329002
H            2.15151906034375       -1.06564960446618       -0.20466677795493
H            2.70630109127594        0.24567957327048        1.48688656140634
H            2.61378753523747        1.97250245314676        1.25936043305744
H            4.64466888811899        1.90050141503388       -0.21485291862346
H            4.75145618336678        0.17722690587575        0.00233360746087
H            5.05167028150384        0.51383190435230        2.48910980826390
H            4.96238345344342        2.23799367581641        2.26210517401556
H            6.99695134527847        2.14243039182485        0.76787017196595
H            7.08423421623702        0.42388431067487        0.99572182835136
H            7.40811116984612        0.78018415636702        3.48579001983850
H            7.32760796420711        2.48524821149032        3.25456312483211
H            7.88610402882086        4.00213836657501        2.10102250432171
H            9.03365371849072        6.11469569071522        1.66119758705899
H           12.77350768275397        4.11839819663932        1.64868380727502
H           12.97027103975352       -0.76273474881901        2.22428740335136
H            9.40191704603064       -2.98818385459915        2.75615961784762
H            8.08717166347593       -0.92861190309659        2.70931147157471
