92
 energy: -19.661106529620 gnorm: 0.000572113889 xtb: 6.5.0 (97a52f5)
C           -0.21884580000866       -1.08845130891490        2.10693078217589
C            1.29510110380222       -0.86553224399864        1.92463825142916
C            1.75070232870526       -1.62319102351434        0.66368952566495
C            1.54275242239710        0.64386023071722        1.74080882059492
C            2.09639794747253       -1.37071788947944        3.13468534618730
C            3.47673458616551       -1.21466246889220        3.15598760476465
C            4.22942609821072       -1.65967257797448        4.21909679270660
C            3.62205870186041       -2.28063639483331        5.29898382452861
N            4.41809568480539       -2.75037054684862        6.40900361875772
C            5.00300258795235       -1.97134524457967        7.42515986382972
C            4.79439705306675       -0.53696648205003        7.61327549012492
C            5.74466774802982        0.22343846037890        8.29211066138246
C            5.56058077810843        1.56991085532543        8.49470667247473
C            4.40670673864454        2.21882705193757        8.04475820451526
C            4.19510339201855        3.66075905994676        8.28095597821232
C            4.84722796917593        4.32791527715913        9.32289927869305
C            4.64363904687333        5.66678599630338        9.54946624144352
C            3.76111420324915        6.40214351681765        8.75556339150774
C            3.53610372443393        7.82686371252198        9.00697384232535
C            2.30951847434507        8.53540638841963        9.05443793962458
C            0.96186469377617        7.94590385629081        9.00782943978115
C           -0.10756667362170        8.69254961310465        8.52063352189559
C           -1.38082006554375        8.16697967342616        8.49393496903288
C           -1.61155608380314        6.88776364726698        8.96012288954470
C           -0.56489281578007        6.13675599073920        9.45705291150032
C            0.70842894062404        6.66050094601281        9.48428384166841
N            2.53157089694072        9.84913177401287        9.21680601087148
C            3.86116204841712        9.99885356110133        9.28278175200295
C            4.59767009431661       11.19206191177126        9.43235893650250
C            5.95591487425716       11.12764211014501        9.44880522508532
C            6.62171753452679        9.89120737991832        9.31426224775689
C            5.91759079457561        8.74343356903798        9.17129313053549
N            4.53025061198281        8.77829489879083        9.16277508087064
C            3.10972527000117        5.74086786527668        7.71077124453841
C            3.32663306986887        4.40575325943784        7.47694156085596
C            3.45282597096411        1.44936932801262        7.37244741784262
C            3.64549438389339        0.10719446819179        7.15704006863217
N            5.79357420334444       -2.69863958221996        8.20279588856989
C            5.73692372439024       -3.96206603637782        7.72489432222947
C            6.41314430842587       -5.13816999619270        8.21476407395353
C            7.23349000638870       -5.07383415110377        9.34315444564403
C            7.86986125922084       -6.19409604183157        9.80787786343370
C            7.70034552446951       -7.40543581389105        9.15332523988631
C            6.89898819553811       -7.48978234400751        8.04182205795118
C            6.23084567191408       -6.36531940336934        7.53685132556209
C            5.37063058519612       -6.42822246379061        6.34960507699253
C            5.16903439200216       -7.61937552805922        5.63817230021511
C            4.36706381214213       -7.66127012784302        4.52537367262726
C            3.73281207190937       -6.51315071644473        4.07492531883492
C            3.90497521302072       -5.33258925004880        4.74519708338723
C            4.71367624002006       -5.26274068363347        5.88432639140054
C            4.90385243387403       -4.03114843949222        6.60484118864371
C            2.24476169138284       -2.44361069030062        5.28846778354447
C            1.49628585430738       -1.99525071996550        4.22251140623116
H           -0.77048799975495       -0.71542799475361        1.24445019573976
H           -0.58884781690085       -0.56351977832835        2.98701589027613
H           -0.45020520699255       -2.14791958955332        2.21118254342346
H            1.19036896701265       -1.29632459860949       -0.21165947418125
H            1.59673532367229       -2.69526063309295        0.78237902091717
H            2.80826165950571       -1.45753198558397        0.46338594055831
H            0.96538615095410        1.03411820983417        0.90327327161767
H            2.59325801091949        0.85331498757538        1.54514009916198
H            1.25262843878864        1.19324481229762        2.63585203167074
H            3.96757250693192       -0.73866338120195        2.32510086028112
H            5.29801636200176       -1.53327619421748        4.22746892422293
H            6.63395223380571       -0.26409163335228        8.65176751734312
H            6.32558774466003        2.13701928654166        8.99467569373787
H            5.50274493350356        3.77766617837047        9.97424188745795
H            5.14465286214014        6.16188796035244       10.36322783310236
H            0.07723355656711        9.69103209449004        8.16452486445148
H           -2.19833492283610        8.75595123420526        8.11133338833332
H           -2.60810922313346        6.47761090763284        8.94037538962954
H           -0.74468138869327        5.14027607734724        9.82642180355185
H            1.52091135624439        6.08024864919763        9.88484401319629
H            4.07570558236891       12.12732153687965        9.52636508008019
H            6.53410231968391       12.03021087560801        9.56092584521382
H            7.69880204280929        9.86461719747011        9.32048906965916
H            6.40735677469057        7.79428464554663        9.05226318775859
H            2.43733321971218        6.29977954062793        7.08284182401756
H            2.83231293086408        3.92920391440570        6.64904968472107
H            2.54098922041281        1.91081382132546        7.03693638555484
H            2.89620302813997       -0.46452077929904        6.64193407405676
H            7.35499167778713       -4.12817909730150        9.84184267951929
H            8.50025490392889       -6.13601444210184       10.68017192023905
H            8.20219748247783       -8.28536635995385        9.52183672009078
H            6.78651461443468       -8.44104776770087        7.55490321405699
H            5.65021381220680       -8.52326096790447        5.96390451052869
H            4.22866923710752       -8.59030120999643        3.99654847461307
H            3.10571356025268       -6.55170104674673        3.19910075284044
H            3.41538134890238       -4.44281611147970        4.39691137029609
H            1.77284539996044       -2.92776514034227        6.12582777225088
H            0.43024577358101       -2.13501945077529        4.23999792102212
