42
 energy: -8.019359957381 gnorm: 0.000618641905 xtb: 6.5.0 (97a52f5)
O            1.64439912343919       -2.04739690776055        1.31894388024567
C            2.03096330653367       -1.07923261200716        0.69824428750081
O            1.77528746618114        0.20951035194821        1.05152836272203
C            2.87394578774100       -1.30693025504907       -0.52843892397526
C            4.35326759318711       -1.42498163417573       -0.18319591084939
C            5.23439530210312       -1.69516497799770       -1.40230585382409
C            6.72036784087808       -1.78570564967517       -1.05756159925154
C            7.59748816972912       -2.07151682671904       -2.26834262669500
N            9.03264495235523       -2.09136269244574       -1.92715036899714
C            9.77730687949862       -0.89624946262782       -2.01143902855506
C            9.17694129726642        0.34363132399592       -2.26379723426660
C            9.92512808574440        1.48932123598945       -2.36121424402923
C           11.30064308720471        1.44118302128129       -2.20694817075958
C           11.91419010371798        0.24244862881526       -1.94655479494424
C           11.17345857647604       -0.92924027664295       -1.83991809108379
C           11.85255036236237       -2.18606942470892       -1.53952286825178
O           13.06816216594024       -2.24165524771427       -1.42518142902672
C           11.02380028274112       -3.37445041429281       -1.36407380803945
C           11.62470410936634       -4.57483691087929       -1.00904156232613
C           10.90488155722200       -5.75078468290178       -0.80323761851156
F           11.55268167209817       -6.99851756195670       -0.43432703140700
C            9.50954986501397       -5.65127373214275       -0.97387960207168
C            8.89746246641615       -4.47678715328470       -1.32925752932073
C            9.63333531589313       -3.30792879985822       -1.54352037642825
H            2.18113643418050        0.84217881468906        0.42796588104381
H            2.71147017894485       -0.50279489056545       -1.25143516849061
H            2.53181517634693       -2.22214317143826       -1.02027390102813
H            4.49028757400723       -2.22280671812540        0.55616601294018
H            4.68765557247058       -0.51030072002454        0.31953865894380
H            5.07834894020643       -0.90874319276158       -2.14985384529817
H            4.91258746422897       -2.62233607602435       -1.89057487993252
H            6.87985765054287       -2.55894307840808       -0.29782092972934
H            7.04779808944993       -0.85449975494431       -0.58166209658529
H            7.42872375917116       -1.33255986992029       -3.05556885229321
H            7.32524378237611       -3.02236145933552       -2.73345451407958
H            8.10931523159873        0.41063869126721       -2.36415872585919
H            9.44183014266262        2.43269267160576       -2.55591364831789
H           11.88508451440711        2.34302793437602       -2.28592708552271
H           12.98156995330264        0.18905750364519       -1.81634252441741
H           12.69225080023662       -4.59165818071913       -0.88407678680726
H            8.91744546656107       -6.53592940927081       -0.81384108743767
H            7.82749390018781       -4.45787843323743       -1.42469436497762
