46
 energy: -8.777920116756 gnorm: 0.000921636180 xtb: 6.5.0 (97a52f5)
O            1.91197306808515        1.92147840233296       -0.76827715491419
C            2.16010379285171        0.88342081283533       -0.19254887441949
O            1.78397941914333       -0.34461962203811       -0.63749828635926
C            2.96026956922997        0.95339661903174        1.08020442830559
C            4.45932740365392        0.98549093572572        0.80338548625323
C            5.30276799787543        1.06686279956340        2.07653978783633
C            6.80691960699846        1.08991892329908        1.80113507468992
C            7.64474819742719        1.17141210548783        3.07061858830878
N            9.09218395955503        1.18970457108177        2.78493175769863
C            9.74409224459653        2.42813765964158        2.60807423045652
C            9.04613308832544        3.64003780054922        2.54031423602432
C            9.70660803072653        4.83334207053769        2.39436808775311
C           11.08832473740360        4.86278688849217        2.30742062163436
C           11.79694695749876        3.69015162637764        2.35759177596536
C           11.14624103924554        2.47032494660179        2.50101934120871
C           11.92803951648754        1.23940423135215        2.53105971667654
O           13.14737702825231        1.25961136604296        2.47097124661429
C           11.19944676849588       -0.02024166817315        2.61852175602785
C           11.90206777374517       -1.21993141280729        2.58430229520862
C           11.24314191784952       -2.41551054845013        2.63952457507461
S           12.17558990053061       -3.94525332154529        2.58709139328464
O           11.78129366174795       -4.74529065099601        3.78705953969307
O           11.90322269776383       -4.56357694348146        1.25334439237446
O           13.69389864958262       -3.49455297173630        2.74821857097981
C            9.86577515170544       -2.44480464379517        2.73006732511054
C            9.15132707442247       -1.27348316685817        2.77117626002617
C            9.79653249267962       -0.03055903470209        2.72550377162007
H            2.07535396801164       -1.06025856896004       -0.04248559519043
H            2.70853431262269        0.11315415205433        1.73293167909000
H            2.66333663239983        1.85417107968083        1.62571795337702
H            4.68874796554826        1.83664000493351        0.15127195379187
H            4.74480521482305        0.09784918346809        0.22730736637993
H            5.06272407954194        0.21985344605413        2.72971638868925
H            5.02038754004082        1.95920656099773        2.64712442128891
H            7.05213428649598        1.93325225105292        1.14617499273420
H            7.09343317102790        0.19991216413033        1.23004150860282
H            7.42380902669592        0.33642201441290        3.74023311898151
H            7.38519894833972        2.05695954921575        3.65612452750927
H            7.97272166455486        3.64366377826075        2.58356478718817
H            9.14861846776079        5.75447130844455        2.34504357394103
H           11.60312060358463        5.80268926161008        2.19473027804549
H           12.87173169870945        3.69244211753023        2.28352111835318
H           12.97725193148067       -1.19774815154326        2.51211311027840
H           14.18903186046068       -4.12048152412836        3.29092928203343
H            9.36080875423556       -3.39646779758528        2.76695415278098
H            8.07904812778402       -1.32124860398132        2.81957543897996
