42
 energy: -8.103147354568 gnorm: 0.000997776605 xtb: 6.5.0 (97a52f5)
O            1.85954725224812        1.89107505035965        1.01583153433518
C            2.18654758074535        0.91487258418351        0.37228409857500
O            1.90450429707010       -0.36861676074637        0.72754745755350
C            2.98344413624807        1.12396148671184       -0.88846811909356
C            4.47964800318535        1.18645741948360       -0.60728292292797
C            5.31764622388350        1.41120486450938       -1.86554627742552
C            6.81872315589491        1.45281106392108       -1.58393804578506
C            7.65650375015653        1.67029020302559       -2.83591264198452
N            9.10174320590264        1.69870406069130       -2.54050575153782
C            9.72141597455805        2.93092937939683       -2.24558588385040
C            8.99391860170155        4.11811276217552       -2.09362786345146
C            9.62153939425087        5.30728101886528       -1.82102001299500
C           10.99906203507904        5.35560518944845       -1.68586542006067
C           11.73595892127976        4.20635867671184       -1.81799539680968
C           11.11864821387770        2.99081421217763       -2.09146524600379
C           11.92964099141754        1.78223149886435       -2.20649165853938
O           13.14849889142054        1.82601391541450       -2.12309218764061
C           11.22956116156815        0.51740153833401       -2.41051933403373
C           11.95376224018221       -0.66906783008461       -2.44455173057507
C           11.32217104233304       -1.87443447133083       -2.61644938026650
C            9.94471981647352       -1.91392098665545       -2.75490586401795
C            9.21258651253238       -0.75405145705816       -2.72775731916258
C            9.83113860721151        0.49170395506959       -2.56253039669909
H            2.26523153964731       -1.00845581122136        0.08244094729055
H            2.65300903955553        2.05449987014558       -1.35945217339666
H            2.76172694944206        0.33081959086455       -1.60824633324875
H            4.79893973652126        0.26263724207408       -0.11123184886312
H            4.68016802726531        1.98319747621015        0.11879421555550
H            5.00835043554016        2.34340092324459       -2.35216536494771
H            5.10297625520361        0.62194968142605       -2.59524542946260
H            7.12953410069018        0.52389485452206       -1.09302571013724
H            7.03880421705453        2.24082906746486       -0.85519163029331
H            7.37348413257546        2.59764098389432       -3.33993896091275
H            7.45851553674119        0.89406588709540       -3.57935563892393
H            7.92236731361648        4.10310027895347       -2.17017568573604
H            9.04144740830751        6.20861195560465       -1.70865907694959
H           11.48887327963204        6.29132849836098       -1.47201431010091
H           12.80681093936888        4.22531987198993       -1.70807152412279
H           13.02300789408450       -0.62169578340807       -2.32854101534287
H           11.89394207270236       -2.78751631886872       -2.63863923091097
H            9.44693791584002       -2.86127543629682       -2.88222803905890
H            8.14348319698332       -0.81342020551845       -2.81602482804158
