39
 energy: -7.898388733017 gnorm: 0.000422011630 xtb: 6.5.0 (97a52f5)
O            1.43978452051104       -0.64467285225152        0.30935277032064
C            2.25738154987554        0.21080528719747        0.04033120514040
O            2.46636061782297        1.33297178778877        0.78103620275958
C            3.12471430369289        0.01798116559481       -1.17515733775080
C            4.41499705693589       -0.71617115720214       -0.83862989148492
C            5.31103895316460       -0.93452040999191       -2.04926126085302
O            6.51507789992950       -1.61030163484560       -1.70201656227826
C            7.40446309346940       -1.82068543529431       -2.76062483808722
C            8.61447604406802       -2.44964348714953       -2.45573303727961
C            9.57462576652981       -2.70578050258180       -3.42571376426580
C           10.81871433140912       -3.34754516306261       -3.12257002118339
C           11.73675814700320       -3.58387721246117       -4.08411223657928
C           11.50280277264842       -3.20314625443824       -5.44423218859531
C           12.43368604438456       -3.43536658981765       -6.45623730730433
C           12.17285163038384       -3.05351476293062       -7.75588529302252
C           10.98560266800625       -2.43284091574480       -8.08479175856460
C           10.02061116266140       -2.17743878724138       -7.11104840932933
C            8.77669152634558       -1.53622053235195       -7.41248436040893
C            7.85859005882191       -1.30034015763991       -6.45091700002372
C            8.09275963373820       -1.68138862437622       -5.09003809053283
C            7.16222830289581       -1.44578772889268       -4.08508339257841
C            9.31455874416841       -2.31791024824155       -4.76210221592500
C           10.28179943479472       -2.56683305807365       -5.77505684996767
H            3.17191876900503        1.88940606396282        0.39638039363487
H            3.34279604835994        0.98549080801056       -1.63608916060055
H            2.55828661098289       -0.54614273076527       -1.92194333088174
H            4.18297152919676       -1.68409885506511       -0.38049936634294
H            4.97166478797120       -0.16532277508345       -0.07272474179229
H            5.57880469699411        0.02659806305704       -2.50246308683655
H            4.79081524937990       -1.53216368635327       -2.80625459765974
H            8.79649607712402       -2.73637571151648       -1.43694512208718
H           11.01143843251812       -3.64035506493013       -2.10531398933827
H           12.66632332108410       -4.06700063560395       -3.83831360228244
H           13.36325769369839       -3.91918185262386       -6.21124303910237
H           12.90539842002611       -3.24221305536603       -8.52337095412584
H           10.79295678591457       -2.13932780945798       -9.10209024817236
H            8.58362362319131       -1.24225702207703       -8.42943296698294
H            6.92924473380880       -0.81683585945503       -6.69647425306649
H            6.23982895748296       -0.96446260272493       -4.34715629657066
