74
 energy: -16.273119991431 gnorm: 0.000893116628 xtb: 6.5.0 (97a52f5)
O            2.16058743924693        1.03193367440311       -1.43300657295525
C            2.48215321892299        2.02780871098379       -0.81666087307434
O            2.27140627654915        3.30252386897623       -1.24938864228251
C            3.18694970136126        1.85800919240676        0.50405325332066
C            4.68473334717618        1.65699662551324        0.32134430567610
C            5.42949661716897        1.46716391334159        1.64166594418673
C            6.90856340584960        1.29494160928647        1.45543772082162
C            7.43303824700780        0.01762665077354        1.40367848861664
C            8.78650077891280       -0.23125066004515        1.20489991936603
C            9.25181238377915       -1.55660335267016        1.16599478882018
C            9.68384988366970       -2.69952010316271        1.13013214015224
C           10.20797311735057       -4.00803004432776        1.09222513914339
C           11.47515134193566       -4.24927829686644        0.57118316111850
C           11.99076512746466       -5.52746495214017        0.53652198526865
C           11.24966265361698       -6.58549355687350        1.02150351784105
C            9.99088037312324       -6.36322146064895        1.54117319501088
C            9.47348196711769       -5.08567492265471        1.57653742982738
C            9.66653425784475        0.85767128754103        1.04377491780216
C           11.06511092938764        0.66882819613218        0.83754618716430
C           11.90195080678746        1.71795862811109        0.67863419446357
C           11.42335807846627        3.05986692425466        0.70901991094921
C           12.28951129214810        4.16303877751684        0.54109219477410
C           13.66885030591011        3.98599342018709        0.33348609709489
C           14.86491480470271        3.82361701085799        0.14297880544505
C           16.24374027196181        3.63690425923630       -0.08696997931490
C           17.08516838328406        4.72495661244058       -0.29472625591855
C           18.43239339671945        4.53976330134171       -0.52200148007344
C           18.96092960431927        3.26533767575532       -0.54547432014797
C           18.13964808837978        2.17548504493561       -0.34096206943303
C           16.79216223711235        2.35871700718267       -0.11347453212108
C           11.76497128008194        5.44734383372558        0.57674868831214
C           10.41371968670629        5.69598082931441        0.77072846034690
C            9.95027450561322        7.02335860088413        0.79161234211070
C            9.52823303098258        8.17004005902363        0.80821106396910
C            9.03323381927121        9.49041174812000        0.83257234914224
C            7.70770492457041        9.75740250262413        0.50592964316070
C            7.22344550956566       11.04818527150828        0.52836901775960
C            8.05464359995200       12.09275034426495        0.87754493688191
C            9.37192784751445       11.84454640066956        1.20478124513839
C            9.85812213559145       10.55437819687240        1.18274949343115
C            9.53033831644035        4.60662455802316        0.94038597040676
C            8.13273751234152        4.79583851949788        1.13714780358283
C            7.29305901557908        3.74862734236728        1.29915666920163
C            7.76635014144433        2.40151943434278        1.28327558533127
C            9.15281083603008        2.17822610229043        1.08166533203994
C           10.03873980378927        3.28504240753297        0.91097507305270
H            2.61743608599312        3.95561367506342       -0.60771106459715
H            2.75405080447959        0.99847970150464        1.02448879738520
H            2.99322485025699        2.72237830123028        1.14607668974095
H            5.10771940183638        2.50786337834551       -0.22440801924167
H            4.86122832716791        0.79121243465253       -0.32770757951676
H            5.02576513338207        0.59505955953006        2.16774475217837
H            5.23499338044386        2.30968269373943        2.31305469194543
H            6.77083486321177       -0.82227468773808        1.51768263992944
H           12.05028609805638       -3.42098664319973        0.19399007620555
H           12.97403675792417       -5.69997640525043        0.13053520886422
H           11.65363846870920       -7.58425326924028        0.99468820096951
H            9.41129938789768       -7.18893244971713        1.92023797972774
H            8.49195716484803       -4.90771841924457        1.98155055632364
H           11.44916980772600       -0.33558106197953        0.80966169044839
H           12.95335395869783        1.55068723335089        0.52381269678883
H           16.66826170446813        5.71749250586521       -0.27628317561775
H           19.07310740387220        5.39154221247973       -0.68156195724798
H           20.01409976591728        3.12131625539288       -0.72339637728219
H           18.55144879245928        1.17971808312703       -0.35929544780309
H           16.14772544951429        1.51123898482433        0.04665703262736
H           12.43098682554963        6.28194574107591        0.44701031276730
H            7.06295043111111        8.93935449902704        0.23349020422571
H            6.19458042418325       11.24105247620972        0.27216875146968
H            7.67551885754649       13.10145746771198        0.89400237672964
H           10.02194112794805       12.65970014443033        1.47751377296708
H           10.88525670557891       10.35573185253427        1.43710866886629
H            7.74924407044863        5.80097631206708        1.15333305071337
H            6.24317364804021        3.93403823069659        1.43781322503757
