38
 energy: -7.742833693720 gnorm: 0.000456339032 xtb: 6.5.0 (97a52f5)
O            1.21246377369178        0.12092298091445       -0.44082649382861
C            1.81351035733500       -0.91904005399617       -0.26436462688231
O            1.84900950958194       -1.94773175290219       -1.15618605550412
C            2.59987208718070       -1.08546252936919        1.00951307505162
C            3.99548112095513       -0.48695519506390        0.89513429207877
C            4.81204668958890       -0.62074838996167        2.18020918369766
C            6.18779463424338       -0.03585084624707        2.06002728401839
C            7.25311985529179       -0.82806569944951        1.66181591605256
C            8.53667016835199       -0.30247355791435        1.51641597342224
C            9.65240052127373       -1.10333521237848        1.11261395029679
C           10.88593218967750       -0.56967861891370        0.97757568514593
C           11.12671236532179        0.81838602602483        1.23242493697047
C           12.39045133148485        1.39461776078014        1.10289419926435
C           12.58308522753233        2.73657216981511        1.35748827831092
C           11.53074783665412        3.53993590815620        1.74470471496950
C           10.24701656419541        3.01353336409888        1.88901402405220
C            9.12911781170789        3.81435538697597        2.28718455509048
C            7.89643361865068        3.27883386094971        2.42251798098723
C            7.65890814528358        1.88938577848342        2.17299108220571
C            6.39607663230745        1.31236974432263        2.30396218224426
C            8.74277039852473        1.07233612687545        1.77598272182951
C           10.04323527702508        1.63674862497295        1.63186699723423
H            2.39642157694954       -2.68767184338503       -0.82544346833637
H            2.65924637902922       -2.14380690596082        1.27855863972268
H            2.05161208471455       -0.60274596067744        1.82382363357618
H            3.91765058900853        0.57050429923492        0.61630976770258
H            4.53445286106528       -0.95993148812950        0.06606421417891
H            4.88873308497481       -1.67626591263776        2.46354106275402
H            4.28316134504112       -0.13734353221356        3.00903286786795
H            7.08745156345128       -1.87052873949825        1.45821138755451
H            9.49016545512536       -2.14918180272854        0.91785075048043
H           11.71307028235486       -1.18730739950364        0.67404229559374
H           13.21856081936176        0.77717712338041        0.80101815149978
H           13.56735103671047        3.16253581077817        1.25246681537545
H           11.69211139656307        4.58588252175089        1.93989694245715
H            9.28867592180674        4.86121633588523        2.47789773175570
H            7.06725094079412        3.89588907246136        2.72207131529924
H            5.56596854719044        1.92829254505233        2.59924803585066
