29
 energy: -5.652669908294 gnorm: 0.000645422383 xtb: 6.5.0 (97a52f5)
O            1.84490366176000        0.45431017440837        1.72549125146598
C            2.33640766786598        0.24071127922367        0.63630979957129
O            2.21448417928126        1.06745143282430       -0.43732548690767
C            3.16186932971036       -1.00518624581659        0.45225654972559
C            4.63231669368315       -0.75694664379095        0.73906157492342
N            5.46236791280689       -1.94350155112822        0.55563267304381
C            6.83766931895984       -2.00372539012539        0.74641283092979
C            7.54452454365383       -0.86701067562188        1.10200502497127
C            8.91709103750769       -0.89800200026366        1.31315725320025
C            9.61485918655014       -2.06301025998561        1.17378207311401
C            8.95556999348142       -3.25558535371612        0.80962044693928
C            9.66331146622828       -4.46855921398790        0.65909701848228
C            9.01585817730576       -5.61257218759023        0.30147551675323
C            7.63840378843883       -5.59802178153759        0.07543937375250
C            6.92591776329873       -4.44157550237231        0.21308562304427
C            7.55545492236200       -3.23797923607801        0.58698567312219
H            2.69070579467944        0.71585035376877       -1.21555912825754
H            3.03253628401584       -1.39516360365267       -0.56084666193651
H            2.77880709634496       -1.77992089521359        1.12237798280317
H            4.75687747212803       -0.39851684587371        1.76653004569849
H            5.01236767983502        0.03582839845188        0.08656732656035
H            4.91062102280071       -2.77996869965038        0.38806737416179
H            7.01610070278593        0.06170256060840        1.22110649077759
H            9.43362717704325        0.00624826518353        1.59049659097915
H           10.67804526627003       -2.08288882128421        1.33958116956551
H           10.72559667637164       -4.47741510199254        0.83178564627309
H            9.56618402547019       -6.53224306830881        0.18985835825229
H            7.13689120152535       -6.50801301503519       -0.21092015397017
H            5.86818995783239       -4.45231637143900        0.02693776296242
