62
 energy: -10.536543743860 gnorm: 0.000250486327 xtb: 6.5.0 (97a52f5)
O            4.98198723087972       -1.87730030771099        0.58814620503306
C            4.69920239320399       -2.62045554801941       -0.32644950372317
O            5.24814395209411       -3.84735606197192       -0.50873743585145
C            3.69167678456693       -2.14886430415532       -1.34048392109361
C            4.35618167359697       -1.54285595091816       -2.56943519633223
N            5.30537197266314       -0.46505271657099       -2.22233223548230
C            6.68063516070374       -0.70113785267709       -2.00537740846092
C            7.34977458752405       -1.71881061639644       -2.68777867392977
C            8.69412960807474       -1.98056661195442       -2.48782375827986
C            9.41305367728571       -1.19027075664436       -1.55206078382939
C            8.74123995030144       -0.16099622264603       -0.87425250850557
C            7.40509500892674        0.09583004624917       -1.08665519078167
C            6.73904567203808        1.20627037906439       -0.32184122521553
C            5.20463889496729        1.12097332786641       -0.34135867737904
C            4.70365544052797        0.79272002969560       -1.74537932227473
C           10.76909446527136       -1.46414616487789       -1.34944977350170
C           11.39412049750818       -2.47542047814696       -2.05455962416791
C           10.65054720658165       -3.22431974833664       -2.97972634394149
C           11.31106486290459       -4.24747244729667       -3.70819428831876
C           10.62390079367115       -5.01666568911300       -4.65061822673811
C           11.25018438380077       -6.00124624612336       -5.37472150464652
C           12.62574754588079       -6.25249421953359       -5.16040769992450
C           13.32868659684083       -5.49238410845198       -4.21292266792403
C           12.68412901791739       -4.48696926204692       -3.48488070334696
O           13.42398893170170       -3.75606745196932       -2.56506767653866
C           12.81119537518755       -2.75417436743019       -1.84346396670739
O           13.42093685781736       -2.08202649198896       -1.02355209572056
C           14.78049513601995       -5.73688275681057       -3.95610730470566
C           15.49774944804248       -6.33592271876216       -5.17331760187898
C           14.72729372058403       -7.53646582179622       -5.72179981212563
N           13.28739548125734       -7.24757596378348       -5.89788909760427
C           12.55563766212239       -8.13687289274933       -6.82263302040727
C           11.36039906790709       -7.43003561213237       -7.45844524498926
C           10.46853381711304       -6.79243178439972       -6.38301081362152
O            9.30956216564134       -2.99589764390976       -3.20390167517421
H            4.88167879310490       -4.30452943094436       -1.28823829487839
H            3.05507934730825       -1.40312423340974       -0.85644020223589
H            3.02745048382901       -2.97296065980431       -1.61800069646268
H            3.61268983083361       -1.13346030916501       -3.26022063766186
H            4.88507968756195       -2.31662959640173       -3.12657533038260
H            6.83829344638464       -2.30620024942410       -3.42453702314881
H            9.28781686750694        0.44166118773240       -0.17151350001954
H            7.06280747146902        2.16510215684276       -0.74282139119736
H            7.10454144000626        1.19374301488732        0.71244940525186
H            4.75115229052901        2.05025970760616        0.02900573418936
H            4.88295196184025        0.32789039852683        0.34538718355513
H            4.98802789427242        1.58202592151263       -2.44783699943166
H            3.61221043848061        0.71908329947616       -1.78116011061207
H           11.34020513308503       -0.88666951175681       -0.64544181999920
H            9.57776316174781       -4.81930002778435       -4.80426991621245
H           14.87588580284300       -6.40908203977285       -3.09560103928225
H           15.24907067501692       -4.79229833721953       -3.65061049243240
H           15.58544173871818       -5.57268236275423       -5.95579840713632
H           16.52650804824405       -6.62195184732077       -4.91520417576673
H           14.81321095311666       -8.39014204244463       -5.04300788722955
H           15.14021881336803       -7.85621398137327       -6.68396064492985
H           12.22507996558941       -9.00870525551412       -6.25014522484230
H           13.24725639675999       -8.50550686891692       -7.58705388825397
H           10.78292847690374       -8.12835488108441       -8.07955805799519
H           11.72275460968742       -6.65070384011227       -8.13957129458980
H            9.90581441787124       -7.57211389779222       -5.85692279014214
H            9.71734681281708       -6.14206127711985       -6.84800372004543
