32
 energy: -6.231180009501 gnorm: 0.000729120866 xtb: 6.5.0 (97a52f5)
O            1.11909522994990       -0.04299369370225       -0.67842938286032
C            2.26078687977032       -0.10471634933883       -0.28039677541479
O            2.77219300660109        0.62365847519518        0.73746436987695
C            3.21242720580326       -1.05103877293409       -0.96766283357927
O            4.41494804404526       -1.18971223747312       -0.23131597745930
C            5.33573880465939       -2.10583375446311       -0.76822221204801
C            6.51621132166248       -2.33149871279103       -0.01127054311605
C            7.49098808502496       -3.19395208340196       -0.41914405715242
C            7.31728244291452       -3.87842578139788       -1.62847478554869
N            8.11179893298860       -4.79710119094382       -2.29305878136115
C            7.46916065015164       -5.16742758949316       -3.45227540483766
C            6.26309934714536       -4.49752032594248       -3.54924180525717
C            6.15422998727990       -3.67347607995248       -2.39892474825868
C            5.16108866744797       -2.78029252111882       -1.96109631663107
C            5.30783866395959       -4.69539997137660       -4.68212403852190
C            5.58408139766420       -6.01424605884772       -5.44368752322461
C            7.08941302472955       -6.28080060161997       -5.68898591965537
C            7.93649343860479       -6.12658578209175       -4.45074863966508
O            8.95168693539411       -6.76293979521673       -4.29097482185794
H            3.71002532894085        0.38840725349202        0.87708550814812
H            3.45648543266464       -0.67195628892983       -1.96401912441524
H            2.74722944446037       -2.03609070910438       -1.06225585849829
H            6.62354778992798       -1.79583548388786        0.91528598523425
H            8.37973506898028       -3.35588303716632        0.16428914029937
H            9.01292414325886       -5.15761598715776       -1.98491220765637
H            4.28642895201265       -2.63356394106605       -2.56391816462334
H            5.38683245382554       -3.84310055680103       -5.36614649489755
H            4.28222849729775       -4.67970549022216       -4.29464106812132
H            5.04264382571360       -6.01656078257172       -6.39900413618917
H            5.16576173393623       -6.85063541148958       -4.87137933700697
H            7.46703579710817       -5.59346619309177       -6.45270154317316
H            7.24441946607786       -7.28985054509375       -6.08734250252783
