74
 energy: -15.425817899988 gnorm: 0.000763356545 xtb: 6.5.0 (97a52f5)
O           -0.04486955344602        1.91633406884376       -0.41644589949284
C            0.75274325573928        2.67095475101438        0.09606479912839
O            1.98039875300824        2.97322181745976       -0.38519195274196
C            0.38290047119610        3.35698361465726        1.38585520646337
O            1.52639130796831        3.59841747731992        2.19116309796356
C            2.05254215052298        2.46657554125730        2.82505909910919
C            2.98189592017144        2.67219865508851        3.84528489042390
C            3.55961695797163        1.60449764186885        4.48854391021921
C            3.21126192550665        0.31709496142764        4.14979893545142
C            2.25075031911418        0.05160242273651        3.16429722458428
C            1.92426292962118       -1.32578452772599        2.76610327416160
C            2.50513001784666       -2.45336857083112        3.45109645758523
N            2.87141907328226       -3.60906417450105        2.86317866359677
C            3.39755354226630       -4.38634379201967        3.83959605161648
C            4.01115249707855       -5.62507107452514        3.67358575348590
C            4.13916072121107       -6.28327690933003        2.45344862243394
C            4.89744347420186       -7.45757400802114        2.22743672465265
C            4.77772282623300       -7.78521429096948        0.90833673119131
C            3.92674814790556       -6.83857071789387        0.28877561362020
N            3.56169846941043       -5.92998984265278        1.24651289155096
C            3.52476248340709       -6.86102188406946       -1.07980672854048
C            4.07270745831508       -7.91895773426768       -1.96660088436348
C            4.88719475070207       -7.59221386663205       -3.05414816543385
C            5.38666519518357       -8.57731792534653       -3.87447518577834
C            5.08869375373475       -9.89818380250694       -3.63228298517342
C            4.27886334110936      -10.26936468169091       -2.55569080601624
O            4.02299637934656      -11.63486894626257       -2.38032111583249
C            3.20081572853283      -11.94645986399517       -1.26719699609169
C            2.97820541731331      -13.43376763038271       -1.14669604536006
O            2.31770720307688      -13.84400137517148       -0.21718184477601
O            3.54251968082247      -14.20486001025388       -2.10564870229518
C            3.78164864186057       -9.26092585139832       -1.73395669433643
C            2.56859399515224       -5.97201225282491       -1.58425871306370
N            1.97088408532218       -4.97442808569179       -0.92158974318645
C            0.97897853053588       -4.44232850646916       -1.68491278672396
C            0.16861379532098       -3.38892634282360       -1.37250339481374
C            0.27997842287757       -2.57551440969370       -0.22464591643842
C           -0.54356097425266       -1.47165810663016        0.07160056266092
C           -0.07138707323909       -0.88425379989171        1.21252631266226
C            1.07323417934899       -1.60128752227709        1.64089650033773
N            1.22509864493921       -2.65983783038082        0.76400495108339
C            0.83761620287201       -5.16724527238943       -2.99419167312965
C            2.00853356615201       -6.13438653617480       -2.97382900880422
C            3.30497806825717       -3.72273733445337        5.10813559847856
C            2.74502480740303       -2.52601642445938        4.86987897083569
C            1.72093741947344        1.15513596625502        2.49427685305735
H            2.43477909292461        3.58614711193907        0.22881634410574
H           -0.33614137449268        2.76472592647564        1.95868661991415
H           -0.08111864545599        4.32514120391405        1.17609976279629
H            3.24647735016377        3.68265642616205        4.10235688668478
H            4.29814942517505        1.77708830776288        5.25441157539008
H            3.73656971553623       -0.49661592397016        4.61284888880145
H            4.45722426028862       -6.08248603824367        4.53790556963517
H            5.47433157471222       -7.98644144814470        2.96771187841634
H            5.24189176453462       -8.62576708526221        0.42073888653284
H            2.93109420057531       -5.13101849844974        1.11017775066006
H            5.13065629986022       -6.55934410838006       -3.23304686834496
H            6.01543980462581       -8.31333648673476       -4.70889572574479
H            5.47586696095826      -10.67233740343519       -4.27053886976643
H            2.23954600967427      -11.44036663241788       -1.39132656462392
H            3.68590677567512      -11.57346051574848       -0.36100750674264
H            4.02363678572291      -13.63895954451547       -2.74203239514604
H            3.14733533199977       -9.50483464708477       -0.90346054248436
H           -0.59683607541900       -3.12506877108145       -2.08028301894851
H           -1.39090698467341       -1.14472796869111       -0.50829444009610
H           -0.54496355278787       -0.06625393294548        1.72926984830409
H            1.96452634685883       -3.37083420333507        0.80903964266064
H            0.88211146320040       -4.46712460291301       -3.83691473453729
H           -0.12829289388315       -5.68406729320281       -3.03692939805260
H            2.76787092904650       -5.87695136582876       -3.72080363532329
H            1.70138064286078       -7.17160186659414       -3.15228678643348
H            3.61002571831888       -4.11818307112760        6.06309272192232
H            2.45752752908102       -1.79809110539959        5.61087242372400
H            1.09965463455990        1.00002052390017        1.63777923256935
