77
 energy: -13.038844061738 gnorm: 0.000701651847 xtb: 6.5.0 (97a52f5)
O            1.12200114705486        3.55951101941073       -0.74173347299483
C            2.25224750959495        3.14563261493557       -0.86414835480728
O            2.62166729243215        2.14372569509464       -1.70149093836653
C            3.33506758674690        3.75547358913961       -0.00848246548638
O            3.33599676956861        3.15283243909007        1.28394780398691
C            4.59095261022085        2.89213560926404        1.84313709358229
C            5.74725025828729        3.56677377992932        1.46252005587259
C            6.96724548857138        3.25886827021320        2.02136152020437
C            7.07343270432983        2.27573969813236        2.97883329523737
C            5.94973736609103        1.58861186618494        3.42251884073261
O            5.98098954917803        0.57654148315859        4.38454761321502
C            7.25054542135118        0.28187296503357        4.93983442452746
C            7.11524782247499       -0.73911728184353        6.04130140810180
O            8.08933388093717       -1.38249454861292        6.36026026723902
O            5.89400065013314       -0.83651745212281        6.61250243447513
C            4.67271311809215        1.90437753747537        2.86913070014933
C            3.48027560317135        1.22125844608804        3.39043855350209
C            2.56960869510231        0.50530034542335        2.54877426477140
C            2.67871432621351        0.49999180949425        1.15160283461361
C            1.77437319276457       -0.15420855798373        0.35877328051115
C            0.72311929768978       -0.88727968137263        0.92051086628744
N           -0.20938222589469       -1.56469528053197        0.09979618129500
C           -1.57564401817956       -1.90180349509787        0.55267657870405
C           -1.74808709120620       -3.41967210972998        0.65930719025530
C           -1.41079760202401       -4.09178905773648       -0.68333107452032
C           -0.00358343026409       -3.69259954570404       -1.16457284380207
C            0.16312893009623       -2.16731996823639       -1.20101481144775
C            0.62567472928577       -0.92556085417430        2.30955098866850
C            1.51836392913456       -0.25247972736378        3.13186374401385
O            1.35186413450092       -0.36387103250108        4.50284105770650
C            2.20912879748931        0.35244776965820        5.32075050851941
C            2.05375137559184        0.24976396822637        6.69522639994163
C            2.85726999792790        0.95680089456836        7.58855283040206
N            2.76376954979826        0.72080850339003        8.98229058688091
C            2.59660132709187       -0.65874684828058        9.50044971330181
C            3.96407774034147       -1.25968364667333        9.84768092867911
C            4.71664142203954       -0.36545864996073       10.84999864952033
C            4.80454750470357        1.08489976714623       10.34007481601974
C            3.41469600608932        1.61382786718200        9.96436295589071
C            3.79920792072219        1.84787671560602        7.05798566479906
C            3.98229252294468        1.95263092603877        5.70577465410587
C            3.23767832783678        1.18037724307860        4.80087973977544
H            3.58512126320541        1.98724724476970       -1.68163835484464
H            3.15812905214700        4.82673785436417        0.12394690585801
H            4.30578633321057        3.61662405309313       -0.48803602105128
H            5.68565655695324        4.36984771921719        0.75091280258943
H            7.84865899669881        3.79382829661470        1.70615082243499
H            8.03997885046964        2.04191421302656        3.38548862724016
H            7.68535857831311        1.20159206111753        5.34012289507071
H            7.89242899437378       -0.10825578002668        4.14520125071840
H            5.27573894935492       -0.20987971013545        6.17753452964344
H            3.47199265640177        1.06360025738590        0.69585089415325
H            1.82721461638262       -0.04241122301821       -0.70941802411857
H           -2.27673375959561       -1.49040801905551       -0.17964789367660
H           -1.79303617097845       -1.39204792011199        1.49557104283873
H           -2.76520113384903       -3.67640393977924        0.98463641341412
H           -1.07724237138935       -3.80455878522307        1.43611178186993
H           -2.15035967091534       -3.79244877648722       -1.43539335361581
H           -1.49757293118075       -5.18384968657314       -0.60221547581025
H            0.20591873278329       -4.12689246567148       -2.15144189937899
H            0.74513828626599       -4.11862898710670       -0.48645500808932
H           -0.46929498960675       -1.72381377416791       -1.97535101602094
H            1.19427903637527       -1.89774319131708       -1.44479980201353
H           -0.13828143091973       -1.51354106930392        2.77972287218468
H            1.26930806280835       -0.38258419340390        7.06340758366642
H            2.06804820461934       -1.27229816887396        8.76630944428142
H            1.95648179883638       -0.61479406706143       10.38637154612013
H            4.55740047181306       -1.35149252637927        8.92950340373482
H            3.85351899892658       -2.28023875749801       10.23799803895049
H            5.72037786359022       -0.76661012249994       11.04577458089220
H            4.19825716052847       -0.38259440069783       11.81588583949510
H            5.45676504070715        1.11712601858419        9.45992529835467
H            5.27817084446355        1.73517781331712       11.08775290604298
H            3.44693760404094        2.63360671427513        9.56926311234812
H            2.77393209572050        1.65705685482816       10.85024399237688
H            4.41791377401464        2.42578283244286        7.71943334936888
H            4.72669949742811        2.62766054640263        5.32067243085301
