88
 energy: -18.462808545930 gnorm: 0.000378280053 xtb: 6.5.0 (97a52f5)
C           -0.21296604100072       -0.68604001408109        2.28095623981226
C            1.06303133679163        0.15822282831828        2.10342874897789
C            1.75281568616775       -0.27543796805727        0.79502261450727
C            0.68822522115656        1.64723323990741        1.98408431269825
C            1.97721895312699       -0.03822950803503        3.32297624178090
C            3.27030567829720       -0.53716038939869        3.21387197393704
C            4.06666793406283       -0.69874086780882        4.32573018059608
C            3.59331071556870       -0.36643468851111        5.58564169925214
N            4.42446830783695       -0.55039344970176        6.75199596073271
C            5.39069380318643        0.33452979059288        7.26878961366642
C            5.68672229021445        1.64600821745027        6.73575739059393
C            4.96839595498460        2.33055569714846        5.79270683197976
C            5.48785076947865        3.60680116358663        5.48331702970733
C            6.62558521997009        3.92838030689019        6.17380882959768
C            7.38664333776049        5.16476300570415        6.06912657634346
C            6.86083939334102        6.30250038022687        5.44876465785913
C            7.59337210050859        7.46084132287791        5.36347425059327
C            8.88560646870202        7.53134390201975        5.88338073780909
N            9.65293019067005        8.73812194499997        5.78236063151645
C            9.01304222134023       10.01170340031031        5.95717142025937
C            9.40233407126247       11.11718164632552        5.20448469172352
C            8.79092221674565       12.33827797133763        5.38107839427413
C            7.77946752362565       12.47876750677601        6.31156008734524
C            7.38032339208684       11.39152877248363        7.06452633491114
C            7.98992663634913       10.16947043459903        6.88924348412211
C           11.05984823243337        8.67127282627378        5.50271237576962
C           11.94847627319001        9.57406355859355        6.08193069783528
C           13.29567069661279        9.51055539557467        5.80423872805273
C           13.78109486111229        8.54511236660245        4.94350460734812
C           12.91302834199199        7.64133609034127        4.36213561393979
C           11.56566468011909        7.70263187871900        4.63880749028154
C            9.41361943713954        6.39898663705243        6.50262957826377
C            8.67733903081092        5.24444695399268        6.59839136035120
S            7.05286050033400        2.60527192666039        7.23378918102955
N            6.00520184668181       -0.18276267303560        8.32542290953612
C            5.45626468222910       -1.40260534978167        8.52605127295760
C            5.75859718954096       -2.36676728102397        9.55520745868797
C            6.72716925974279       -2.09839433787453       10.52483769534871
C            7.00409373288671       -3.01316445176269       11.50618055275892
C            6.31777350981574       -4.21842023092555       11.53993378270656
C            5.36320562481185       -4.50251493905649       10.59489159411828
C            5.05243623935083       -3.59198453158845        9.57478672155993
C            4.03798823827886       -3.87238703123756        8.55253692354145
C            3.32364785749886       -5.07856886737605        8.52151732616822
C            2.38028815718922       -5.32698622726547        7.55603234859083
C            2.11028609282046       -4.37996163503332        6.57907704888844
C            2.78721134139000       -3.19067390930474        6.57800038109016
C            3.75286228688850       -2.91148034035521        7.55119890315335
C            4.47617152531495       -1.66842261412495        7.56589695206853
C            2.30436469461895        0.13018091997939        5.70585117034850
C            1.51322326928941        0.29158684709926        4.59061373279816
H           -0.87120697881690       -0.58332345106651        1.41876430860092
H           -0.77183303522112       -0.37963566635359        3.16393490051997
H            0.03608230404925       -1.74098047497877        2.39151152024725
H            1.09037010689700       -0.12889397874291       -0.05765118165224
H            2.02228124589080       -1.33071983051496        0.82471712010556
H            2.65467708027098        0.30858360854328        0.61448720227053
H            0.05375713900367        1.82128743464276        1.11555756703901
H            1.58197686008003        2.26134836857114        1.87782408579031
H            0.14839063866611        1.99156295006808        2.86497485306892
H            3.66337076153531       -0.80435030800999        2.24928941108504
H            5.06645497596881       -1.08612810722498        4.23392303528783
H            4.07477620993334        1.93744539263951        5.33796501431783
H            5.03252447892137        4.26194152401183        4.75741515960633
H            5.86422451814480        6.27051103031249        5.04531559855620
H            7.18173636540468        8.33035125996538        4.88135594634214
H           10.18453616631512       11.00020868172371        4.47500737451698
H            9.10160817377672       13.18573612570026        4.79202507919659
H            7.30246969791556       13.43529180821515        6.45010409756085
H            6.59206220303059       11.50040297679493        7.79151774745019
H            7.68920111574076        9.32127715978254        7.47904166799166
H           11.56632781578425       10.31907437474666        6.75764909320136
H           13.97263376903956       10.21509163946713        6.25927268826297
H           14.83555940219563        8.49709646527770        4.72563811993140
H           13.29060590560291        6.88836308207793        3.68967342996424
H           10.88356206949763        7.00734829485547        4.18158528403424
H           10.40595666364822        6.44878131118221        6.91569959422466
H            9.09192922731729        4.37782736093017        7.08273272834515
H            7.25082933921373       -1.15921358026456       10.48788957669889
H            7.75203391290758       -2.79755548422399       12.25171916235168
H            6.53653874250732       -4.93511254208962       12.31480862023608
H            4.84666228427945       -5.44339928442755       10.64632864806906
H            3.51416454634573       -5.83070346065499        9.26496417461148
H            1.84559673849465       -6.26295250313430        7.55441822595263
H            1.36912225852828       -4.58140880752502        5.82279501384821
H            2.58018226446686       -2.45715701672249        5.82154002291956
H            1.93485248412373        0.38481898509074        6.68394565582457
H            0.51575156440567        0.67934903402144        4.70315411204534
