33
 energy: -7.407455829419 gnorm: 0.000861922232 xtb: 6.5.0 (97a52f5)
O            1.16209360370037       -1.38267410859734        0.57258722461184
C            2.19599638225547       -0.84092775846778        0.22198647169234
O            2.40724855469749       -0.35687694071658       -1.03629981476336
C            3.28691432667916       -0.70542051700137        1.21485569013224
C            4.36714125783284        0.15692817850675        1.18390203580689
C            5.11649459502222       -0.05637442229684        2.35516289879677
C            4.46013055083158       -1.06834228567053        3.09306668434773
C            4.95596768530800       -1.51168045099005        4.31889564263720
C            6.11724966587343       -0.94981934981386        4.82886393853864
C            6.66131909747824       -1.37363258164445        6.08347388996800
C            7.78983402156149       -0.82764006209142        6.58254594774190
C            8.49412533344294        0.20168827930999        5.87825551425256
C            9.65919652313499        0.77593837938317        6.37827309824209
C           10.31761613365186        1.76865617404522        5.67653515753486
C            9.83614397406732        2.21185942891847        4.46725535497470
C            8.66826411520475        1.66796503751222        3.91902303035183
C            8.14290404147300        2.10274014390056        2.66961417394266
C            7.01032489279839        1.55934868146175        2.16022191480715
C            6.31118506873948        0.54065769638173        2.85449836267217
C            6.79874457772923        0.08103120624153        4.09632880484561
C            7.98854087052913        0.65094619925353        4.63179254954945
N            3.34307765059257       -1.44761180506018        2.37181959866688
H            3.30986522964084        0.00335724807564       -1.13637918738637
H            4.58297329797937        0.88780737653324        0.42552536024762
H            4.43880123077734       -2.28294198114124        4.85775658590537
H            6.14831460541381       -2.14544703933248        6.63043936859547
H            8.17991031068515       -1.16259712817269        7.52791479369189
H           10.04589571194276        0.43728627248507        7.32369299552424
H           11.21840985570437        2.19906099705649        6.08222900078720
H           10.35603050175103        2.98489914295892        3.92864618094253
H            8.66259361063589        2.87563112533470        2.13062423179940
H            6.62643504241635        1.89897757299363        1.21448816962642
H            2.64041768044884       -2.12551270935554        2.66141433091595
