26
 energy: -5.611002393270 gnorm: 0.000670686090 xtb: 6.5.0 (97a52f5)
O            3.10513629485051        0.29652466230504        1.29566819279453
C            2.66485518783434        0.06214364711490        0.18511249299599
O            1.61952871580855        0.73917704609375       -0.35668427861071
C            3.30485150882111       -1.01275308454982       -0.60763466953535
C            4.35228859013310       -1.66459935028420       -0.05493277639417
C            5.02770324989964       -2.70294517560708       -0.72770246514428
C            4.57022227694491       -3.04115197609751       -2.00761665710594
C            5.21003261130278       -4.07960435424707       -2.72679215597642
C            6.25937063242300       -4.75369804887000       -2.20560565683231
C            6.75851676770579       -4.44097559207549       -0.91339893004672
C            7.85226474411137       -5.13685669498193       -0.36863734869545
C            8.32552107508620       -4.82976029670584        0.87337532391378
C            7.72656848523344       -3.81798231394827        1.61896652577023
C            6.66304120727551       -3.12447279470484        1.11651859022573
C            6.14612750510190       -3.41148157434811       -0.16093329155958
O            3.51192726273877       -2.40217858964369       -2.60970458158867
C            2.85369203770670       -1.39172829116009       -1.94434419377767
O            1.90571798376330       -0.81322457502904       -2.45299520290048
H            1.43636724521872        0.38376149438803       -1.24359571078924
H            4.66148484629383       -1.36573401281969        0.92974284149231
H            4.83334966056970       -4.31688875968487       -3.70668962909889
H            6.73072395796414       -5.54046059550210       -2.76946523706542
H            8.31518406293933       -5.91904176428667       -0.94579796937894
H            9.16503846683325       -5.36997899694130        1.28056549623974
H            8.10771534827084       -3.58271460171157        2.59976889470278
H            6.21834027516963       -2.34760540670289        1.71143239636544
