53
 energy: -11.290976606219 gnorm: 0.000949450727 xtb: 6.5.0 (97a52f5)
O            1.55680220712393        0.07505547521630       -1.52451025575471
C            2.18824433196706       -0.07074115136718       -0.49186694723585
O            2.20018045369540        0.84064066668004        0.52635566421959
C            3.01103164542549       -1.30101008037993       -0.31329945751874
C            2.98621705255752       -2.01417780304786        0.87822364357509
C            3.74602499886407       -3.14912101621580        1.02601900242461
C            4.55575160083184       -3.61612226792689       -0.01034855203961
C            5.35725808605524       -4.81620258738084        0.17250718748384
C            6.24985877039661       -5.36016043375831       -0.71466363260593
N            6.89347645126816       -6.48976002391818       -0.32505467821144
C            6.52683730238886       -6.87279557189245        0.87369569428278
C            7.04874457559572       -8.04743121741972        1.53767026241609
C            6.59315788594731       -8.43066848001992        2.80124008204544
C            7.09083612137304       -9.55026958391354        3.41846551027684
C            8.06745662304847      -10.33196251003971        2.80095071168199
N            8.58244034055886      -11.50372821193941        3.44171415873663
C            7.72251066839164      -12.32033494299708        4.25040849626474
C            8.20012458058259      -12.92771984820081        5.40876067821897
C            7.37701341468179      -13.71853061656108        6.17791759725820
C            6.06223811834746      -13.91750331669489        5.80559373493436
C            5.57325943309144      -13.32212607870765        4.65963627002864
C            6.39449420650342      -12.53136011324887        3.88855875538084
C            9.95803591926413      -11.87545430027297        3.26700057804458
C           10.32469130817097      -13.21367379631527        3.14958780502569
C           11.64505756880562      -13.56903432382074        2.99186480359353
C           12.62366310042705      -12.59575117255724        2.94817208241804
C           12.27630278885465      -11.26410342969995        3.06220642532272
C           10.95669220826497      -10.90615193381557        3.22012858182206
C            8.52611205571312       -9.94807714041948        1.54078553842870
C            8.02601309885102       -8.83069429283036        0.92140069823291
S            5.33053954140605       -5.80905676815289        1.59481805999950
C            4.56337898720477       -2.89913104017984       -1.20895272515897
C            3.80213558881628       -1.76481837073524       -1.35599473367707
H            2.80353503532513        0.56235213485900        1.24312464050456
H            2.35210679292649       -1.67846715193588        1.68023566994979
H            3.72433419177563       -3.69645290095365        1.95173378173673
H            6.45797893900868       -4.92694550109789       -1.68242759049808
H            5.84259206252516       -7.83243390204953        3.28666121747801
H            6.74078538003414       -9.83320997786713        4.39552479443937
H            9.22298584592438      -12.76251528362376        5.69831898479643
H            7.75910869891838      -14.18302469496557        7.07198741879473
H            5.41865965035683      -14.53711371779971        6.40817966769520
H            4.54802584397593      -13.47878721361451        4.36722217432217
H            6.02231460695039      -12.07545891179578        2.98796862552653
H            9.55728338560139      -13.96717999561168        3.17562811502388
H           11.91559490289212      -14.60827495025334        2.90240184482724
H           13.65720321358814      -12.87509335935039        2.82560447014427
H           13.03966133572040      -10.50424779865201        3.02932391739595
H           10.68152357422636       -9.87099842309902        3.32113938924914
H            9.27012597522300      -10.55254134362658        1.05283884174937
H            8.37976983099667       -8.54227972474480       -0.05267583005123
H            5.16845964746670       -3.24378736342410       -2.02830299808452
H            3.80536005209520       -1.22004363786296       -2.28449817491092
