30
 energy: -6.383452693954 gnorm: 0.000938914210 xtb: 6.5.0 (97a52f5)
O            1.04647491527511       -0.38566955262262        0.46926036209188
C            2.19748387308823       -0.16980207416767        0.13735249915277
O            2.86067267366121        0.99001440559244        0.40546226233903
C            2.94509215279660       -1.22099768886301       -0.61143762000852
C            2.46024788385876       -1.66818551853430       -1.80859766632943
C            3.13243536572666       -2.64690559767701       -2.54468179557920
C            4.29834045218591       -3.20207383122924       -2.09315961489842
C            5.00781264111569       -4.22292168953593       -2.91613860057025
O            5.41992202061878       -5.23604795423196       -2.38134380094474
O            5.17526324453674       -3.95015361669694       -4.24155785845580
C            4.82373831469135       -2.79898717580772       -0.82243812236279
C            5.97505616233285       -3.36878083484318       -0.29383124631657
C            6.48805464290917       -2.97552449313572        0.93887999601722
C            7.66466393888619       -3.55247505410967        1.48465167913340
C            8.13633042186474       -3.14978989188285        2.69116690315301
C            7.46739827852825       -2.15360558648123        3.42564799598383
C            6.33821817733804       -1.57835555489152        2.94126641214619
C            5.80985974938200       -1.96855549028983        1.68262773579671
C            4.65110262278201       -1.40171533500890        1.15845350051201
C            4.14453475850042       -1.78942708124511       -0.07628336207640
H            3.73929533856221        1.00828823950972       -0.01822964495491
H            1.54097605519830       -1.25040479910265       -2.18362592005193
H            2.71865209417092       -2.98504206983544       -3.47927964913278
H            4.84907125774887       -3.06150472269521       -4.47501959742307
H            6.46400108997434       -4.15402093216186       -0.84079498452476
H            8.17820203963630       -4.31635269588770        0.92675463006639
H            9.03123288347247       -3.59483668281851        3.09467263363740
H            7.85884070619653       -1.84804244889826        4.38221232578425
H            5.82881289666068       -0.81765076013543        3.50719196413401
H            4.13395334830063       -0.64990351231282        1.72585858368150
