92
 energy: -18.462956732856 gnorm: 0.000824964779 xtb: 6.5.0 (97a52f5)
O            4.08615689341896       -1.35327457661314        0.90602361626704
C            5.13849829267683       -0.92369843453751        0.45519535028310
O            6.27702967182783       -1.68117510134261        0.37291457805025
C            5.19398512391527        0.48332653484070       -0.00596425564190
C            6.09355605321408        0.90799104404153       -0.98577924115958
C            6.11825090842123        2.21416389044240       -1.39451878270333
C            5.23758311526051        3.16744345227452       -0.84756346363026
C            5.26193660437763        4.57508758520645       -1.29315670587215
C            5.09349296190266        4.88324462728947       -2.68789569021897
C            4.74436213291643        3.88331226933912       -3.55941624952807
C            4.48928033794401        4.02879605927172       -4.94936940306123
C            4.02739046077653        3.04460692881210       -5.75658011540122
Se           3.97868325099835        3.23930370200752       -7.65709009749046
C            3.68036193074200        1.36149519962794       -7.75871619420911
C            3.63083116186574        0.57653252450318       -8.88608393368831
C            3.40211978711045       -0.78283186391537       -8.75951129711463
C            3.22988385113135       -1.34857371160956       -7.50717919777416
C            3.27869855753539       -0.56831386491995       -6.37221473500592
C            3.49876752595317        0.80419799421006       -6.49007776209486
N            3.57984731861647        1.74773351324174       -5.42042304449784
C            2.83713646329651        1.47002052900184       -4.16765655960933
C            1.36120289751604        1.19122617521708       -4.41457828565727
C            0.58217385385794        0.92665253249416       -3.12576857630016
C           -0.88647366688419        0.64695194265752       -3.36444554973090
S           -1.76443005203111        0.33339220253213       -1.77990728720113
O           -1.15106561068902       -0.93384358680815       -1.29526671798939
O           -1.46701624907818        1.54483402337488       -0.96698027236229
O           -3.17862470435267        0.21198585844466       -2.22249291655181
C            5.22395536164120        6.29745256346090       -3.18857627630262
C            5.88501995506436        7.25488885802614       -2.18548288092780
C            5.32778454537223        7.05684353346440       -0.76944987780031
C            5.41174207931592        5.62483641777804       -0.32443446477713
C            5.64631673803442        5.30617107934141        0.98835552384087
C            5.78283118023643        6.19586721794769        2.08323729506374
C            5.96833599592489        5.74584374989210        3.34341325935584
Se           6.06184291257659        3.89559419989947        3.79964465566743
C            6.38530554778034        4.43039463457923        5.59828759249243
C            6.61264380643267        3.62066599377913        6.68555003053912
C            6.84187904401400        4.19373386868669        7.92435892247536
C            6.84611971614329        5.57124087551130        8.06601552465914
C            6.61926138241182        6.38982449468447        6.98052588740681
C            6.38058142745979        5.82211852472740        5.72850598728458
N            6.13043391793024        6.51155054535998        4.50654382752368
C            6.17296139797332        7.98390297036157        4.45219535848193
C            7.57828091334883        8.49325050008031        4.17601127764704
C            7.66882436002703       10.01840691238774        4.12956834941559
C            9.07210551289462       10.52303547603712        3.86747350474302
S            9.11629751305736       12.36005885937628        3.82779709448462
O            8.26843548353799       12.69739220499787        2.65080302467931
O            8.55476173962895       12.75255878078488        5.15029173145911
O           10.56659527602511       12.63636829102570        3.65295705039053
C            4.32050060441742        2.72052186397794        0.12380675710630
C            4.30217164017168        1.41334104413263        0.52775524671263
H            7.04314524826865       -1.14956160868612        0.08015812549125
H            6.75368239465526        0.19510703211727       -1.44705170382669
H            6.82720650989866        2.53334256628689       -2.13903767436045
H            4.69199110647308        2.88622544712647       -3.16697253685383
H            4.74251394924336        4.96296045217988       -5.41805040129985
H            3.77010676558215        1.02865192408066       -9.85290972795830
H            3.36103844963132       -1.40296347459272       -9.63970069779051
H            3.05957678906809       -2.40904489038084       -7.41917874578933
H            3.16874391134931       -1.00930250359738       -5.39778461768110
H            2.91233945516261        2.32902908488234       -3.49993677261940
H            3.31643421694406        0.63173577814261       -3.65503513963579
H            1.24752594518745        0.33947638818138       -5.09337694581275
H            0.91836404217092        2.03913157732132       -4.95017384711762
H            0.68730648775662        1.78404015228041       -2.44869149197584
H            1.03451881698283        0.08303927155848       -2.58871711646662
H           -1.02018250205730       -0.22346010564598       -4.00653795070378
H           -1.37057193869425        1.48663876437556       -3.86275347530289
H            4.22639523756285        6.66828279503816       -3.45190665200721
H            5.79872714001521        6.29277155087165       -4.12276349356347
H            5.75888441778625        8.29831690627690       -2.50665994605379
H            6.96795984527325        7.07940217588538       -2.17450196259204
H            4.27995819088899        7.37681048054314       -0.73137699872899
H            5.86560015240513        7.70309349345085       -0.06675524589173
H            5.74223739796042        4.26339946882368        1.22799630912497
H            5.72855563180563        7.25341337061695        1.91025505204087
H            6.61144245677112        2.55165937024720        6.55954793088391
H            7.02140395112297        3.56461917578857        8.78047511094068
H            7.03062408447306        6.00709234452665        9.03423444831850
H            6.63325603422519        7.45822912953606        7.09517395445846
H            5.79195059648945        8.38572839454772        5.39436956273875
H            5.47334203148749        8.33457728232069        3.68922637515739
H            7.94035146686175        8.07000420267198        3.23197157301843
H            8.26094049766454        8.10409386036568        4.94023226889850
H            7.29914559221345       10.43818936048947        5.07394680031930
H            6.98841755641440       10.40553999379588        3.36039308576692
H            9.44997935724941       10.15222019865843        2.91492827323553
H            9.76251151604683       10.18154564658960        4.63843018333816
H            3.61429970722134        3.42239009669055        0.53281339073338
H            3.59373056665702        1.08071393722390        1.26698908787216
