24
 energy: -1.446436716010 gnorm: 0.000378506046 xtb: 6.5.0 (97a52f5)
Br           4.49648267785980       -0.96583587102474        0.13884747078533
C            4.36932547616528        0.52505969412189        1.19236437473445
C            5.38939272555689        1.31795497714759        1.24834558585001
N            5.47153931584794        2.39916983540892        1.99858126077152
C            6.57801245168941        3.19186007270678        1.99299214540861
N            7.75996466623214        2.51992856366120        2.00543412252441
C            8.45296106496554        2.36992817702314        0.89860212374617
C            9.62861882301293        1.76106200408481        0.76706342553884
Br          10.36322614565237        1.78321941304462       -0.94350817457839
C           10.38318408978670        1.12459115727829        1.71762710613208
C           10.14447233134353        0.84771475592379        2.98633868353730
C            9.08362325433962        0.87536541710895        3.86279283697526
N            5.70875643038405       -3.47870887316664       -1.66171177472486
C            4.70747249384366       -2.94091404694667       -1.22451874372072
C            3.65635506811841       -3.61553376612723       -1.61475576817658
C            2.43104043810521       -3.30850343709251       -1.31507837495412
H           -0.09000618822616        0.80893277444433       -0.54554744487014
H            5.72197978494828        5.94354575711588        7.75647578172736
H            0.06914640741314        3.34491755663849       -4.11035951885195
H            6.30620597383586       11.70227237617449        0.33686870268557
H           18.67288967272591       -1.58768100122763       -0.86557257797047
H           12.54430365422763       -8.15215132930631        1.36640103511204
H            4.58748184790658      -11.53460948404495        1.13935058537183
H           -4.63748859726377       -3.91802470750614       -0.39108285893849
