29
 energy: -6.384023573111 gnorm: 0.000577627892 xtb: 6.5.0 (97a52f5)
O            1.16598945843536       -0.13309163743504       -0.28151763547192
C            2.33370695444866        0.02694002009494        0.02918361984911
O            2.94178251951380       -0.61266349774519        1.07142339967283
C            3.17461630537863        0.97819096843692       -0.75683333157668
C            2.81998707123552        2.31976792163627       -0.80609480304909
C            3.56908058317964        3.23274392357897       -1.50882072335203
C            4.71322101529332        2.83496933079730       -2.20291343055896
C            5.51782329362369        3.75864874424116       -2.93851882434850
C            6.61966517430576        3.35177684012558       -3.60624211963326
C            7.02144899730354        1.97964921344641       -3.60545243350293
C            8.15365645081248        1.53333392033015       -4.28745012823224
C            8.50983720518296        0.20124579741989       -4.26733183582226
C            7.75449928254648       -0.72016638987267       -3.57323228124476
C            6.61385219602411       -0.32542401320690       -2.87356174376796
C            5.80525356599018       -1.25066533231718       -2.14392783719250
C            4.70911456278114       -0.84027516215496       -1.46999250165148
C            4.31213811630740        0.53091133476493       -1.45447360197719
C            5.08491432851036        1.47003366606619       -2.17823186999283
C            6.24331891370804        1.04013584023583       -2.88768398005911
H            3.85978539169776       -0.29762644960541        1.18863326127566
H            1.93800458662439        2.63755880142653       -0.27689696869471
H            3.27818252629001        4.26861044524196       -1.52942246401942
H            5.22917997142606        4.79520348919734       -2.95126238131910
H            7.21451762874898        4.06182088766001       -4.15373006024029
H            8.74993280287614        2.24385226370978       -4.83303176191142
H            9.38823467701066       -0.12341940576551       -4.80050407327703
H            8.04089985566458       -1.75745395426316       -3.56507941785266
H            6.08674432575135       -2.28923114935258       -2.14044467096737
H            4.10969223932906       -1.55260641669155       -0.93112940108191
