27
 energy: -5.847894554084 gnorm: 0.000967313507 xtb: 6.5.0 (97a52f5)
O            1.04319831707209        0.20828957603806       -0.24776985190516
C            2.24705390070614        0.06588070857888       -0.13354295178017
O            3.00628398667332       -0.70604329337318       -0.96249706745185
C            2.96164653511227        0.75962551187001        0.96866019649442
C            2.43485960024072        0.76146177757643        2.24594200279318
C            3.10211248867265        1.38181241762613        3.28490399538544
C            4.30259816620020        2.01303805579261        3.05543728826722
C            4.85307590405407        2.04753380518363        1.78225110680479
C            6.11887934897945        2.74078201062641        1.53870490387952
O            6.73320261913523        3.27209202229877        2.44965223149915
C            6.61884854563567        2.78016990497350        0.16385562739483
C            7.80742184584097        3.43306954184652       -0.13882327145715
C            8.26952256648767        3.48221883213624       -1.43099210470909
C            7.54822915137912        2.87878077134141       -2.45046399761173
C            6.37299558897818        2.22805306978838       -2.17399958850267
C            5.88939298915453        2.16257940056176       -0.86602010145366
N            4.70721648278159        1.49637111488702       -0.56060108192556
C            4.17913773485093        1.42216830620479        0.71734296768489
H            3.92468963999653       -0.78810251340121       -0.63008254662671
H            1.49434111677373        0.26614483140524        2.41909594054536
H            2.68110699699494        1.36982507888460        4.27711781070075
H            4.83212920061144        2.49879789576451        3.85752724414103
H            8.35545228461454        3.90057846679845        0.66177965746784
H            9.19266929624846        3.99184747947089       -1.65435346440031
H            7.91457944966003        2.92146268449760       -3.46329247064937
H            5.81359668648298        1.75636580967394       -2.96283749694611
H            4.16741955666241        1.10830673294861       -1.33364497763884
