38
 energy: -8.253824738005 gnorm: 0.000558760499 xtb: 6.5.0 (97a52f5)
O            1.40114512986176       -0.59465008355972       -0.29491906319220
C            2.55274986564357       -0.32756898208364        0.00128496348049
O            3.41176399549334       -1.21351660043472        0.58786240808028
C            3.09514012896322        1.03159480067831       -0.29264783856321
C            4.23976907768166        1.13592461380686       -1.07004134546227
C            4.74263308387913        2.36367214369516       -1.43405295896422
C            4.09640093118832        3.51834157844485       -1.03818879583674
C            2.95870720908220        3.43857359878419       -0.27330758762123
C            2.44075827460442        2.20704180210991        0.13155938478857
C            1.23305474171380        2.20101454991048        0.96224101902224
N            0.20999304673738        3.02691993594635        0.75893992831797
C           -0.68686159060965        2.81185944007454        1.73353254675978
C           -1.95400374079005        3.54211322029089        1.83218662470820
C           -2.55985304794552        4.02371256780651        0.67302521890056
C           -3.74671887807076        4.71795014207239        0.73176730861033
C           -4.34867911750041        4.95506227427720        1.95112294043140
C           -3.75465185875533        4.50195666338139        3.11214397603345
C           -2.56853062154361        3.80555719516052        3.05666166606339
C           -0.20072640074072        1.80449991388010        2.60790786611154
C           -0.74380224015329        1.18043875268808        3.74645172346283
C            0.00348877637103        0.24558263234847        4.39253655222744
C            1.28773574836845       -0.08955700285716        3.92522565869992
C            1.78832255478928        0.49886222636514        2.81195144386706
N            1.03756429841173        1.43677704299861        2.12499251730238
H            4.28937480094566       -0.80780864230255        0.73757576991977
H            4.72091535215211        0.23544113979276       -1.41134202400663
H            5.63290559279992        2.42436404267447       -2.03832530489817
H            4.48471367528240        4.48022205569126       -1.33022826172474
H            2.45141667523580        4.33535854272281        0.03790328353992
H           -2.08387874800673        3.83720946485174       -0.27387369894236
H           -4.20552874550845        5.07761042211670       -0.17446095806172
H           -5.27774001699467        5.49919467242592        1.99730388132644
H           -4.21789762795385        4.69995785967960        4.06478056074927
H           -2.08695003618773        3.49520592686642        3.96643717638009
H           -1.73720863925328        1.42099753680226        4.07774865999862
H           -0.38874442706275       -0.24625130707439        5.26755362841675
H            1.86986914909602       -0.82746923068152        4.45185173563055
H            2.76057362878329        0.24424509064534        2.43324939444146
