27
 energy: -5.569272853424 gnorm: 0.000716152931 xtb: 6.5.0 (97a52f5)
O            1.54105966064466        1.51690681908614        1.01211128600512
C            2.49654896065556        0.93166472067166        0.53146955086435
O            2.94770730594576        1.13638586200059       -0.74221032441412
C            3.25505081937534       -0.05110695695576        1.35903239071104
C            4.60943688620707        0.16953850936486        1.57185267699738
C            5.33915376453591       -0.64381987509846        2.40657953259257
C            4.72053519801664       -1.69257770843501        3.06020702292412
C            3.38190846343266       -1.92856001646566        2.86736759508603
C            2.62134745654471       -1.13486001911804        2.00464756281716
N            1.25229227399607       -1.43890436215165        1.83957575596273
C            0.44764452640143       -1.33928173554618        0.67990788009521
C           -0.93919165691995       -1.26022787614899        0.79543898331526
C           -1.73497874448080       -1.19470518619237       -0.32531154607428
C           -1.16475890525971       -1.21703164901342       -1.58284420883676
C            0.20654201608140       -1.30987336842753       -1.71490041168248
C            1.00484101625969       -1.37483400757939       -0.59629495691664
H            3.72864337119452        0.57927986520030       -0.93330029448890
H            5.07983536186989        1.01236444387489        1.09518567303439
H            6.38857880965827       -0.45487514590806        2.56281128466454
H            5.28924499062145       -2.32394183036367        3.72291681834615
H            2.90286879993731       -2.75026491559721        3.37022145846888
H            0.80258872360137       -1.88023455413403        2.63791020708840
H           -1.37942442217293       -1.23670890587067        1.77688220903879
H           -2.80533506352341       -1.12435664585974       -0.22176203783120
H           -1.78908900547644       -1.16361528726771       -2.45958846166583
H            0.65248725314459       -1.33066163635079       -2.69578212620852
H            2.07219213971023       -1.46157853771470       -0.69332351989535
