16
 energy: -3.142240911246 gnorm: 0.000751509306 xtb: 6.5.0 (97a52f5)
O            2.89348325039570       -1.50442783875322        0.08185044326527
C            2.63398576409689       -0.31460335303353        0.08196048370266
O            1.89989213911687        0.28376002180698        1.05586736636905
C            3.14767959913475        0.51955727686918       -1.03329109279324
C            3.89845877782277       -0.10997106009894       -2.01435006748071
C            4.41753411699561        0.58554043243582       -3.07942856422734
C            4.19274928776669        1.94415631500106       -3.18740262386523
C            3.45362726679862        2.59669130504988       -2.23493882718534
C            2.91260673621017        1.91229774994501       -1.13850164545997
O            2.17378679708964        2.59509356234879       -0.19889392271218
H            1.82015455075711        1.23144830978261        0.85065621962632
H            4.06982628721606       -1.16990478310084       -1.92237263033714
H            4.99986374302269        0.07311206965122       -3.82807151496377
H            4.60045851523259        2.49125325834462       -4.02209877550309
H            3.28270959833336        3.65446915039036       -2.32681580097155
H            2.10605357001042        3.53671758336091       -0.42735904746377
