68
 energy: -19.044085765036 gnorm: 0.000704822062 xtb: 6.5.0 (97a52f5)
O            4.55737748327761        0.40751446714062       -1.95895883576938
C            5.09925718079338        1.49290427965811       -1.73140115112842
O            6.21696793302812        1.86567144495221       -2.10533185007228
C            4.29913014432883        2.48923422659962       -0.89974929087061
O            4.08872547755271        2.03750594388971        0.43390355943195
C            5.15687571277972        2.25175305025782        1.32296111408478
C            6.46151126709568        2.48002708623726        0.90980932895626
C            7.49359566790661        2.72719867453604        1.81146590383951
N            8.79484870758898        2.98297973475276        1.32500562722450
C            9.95518171405789        3.17730700264986        2.08611174337040
O            9.96188648450383        3.06014578754919        3.31075771586915
C           11.19146402070669        3.51919085155135        1.38735757516992
C           12.40068140639637        3.56913824807003        2.10448281207406
C           13.57898320617332        3.85421248262576        1.48227171192882
C           13.66167675474787        4.06059345731340        0.07230579428617
C           14.92198747791634        4.06764056102671       -0.60713566450287
C           15.03069524913245        4.02156959353702       -2.06099149104710
C           14.15016572587873        3.28580472870188       -2.87454101248127
C           14.29614863498147        3.24633885121581       -4.23486729310854
Cl          13.21213598285263        2.30292650494732       -5.20130552226928
C           15.34976196668456        3.95628659703456       -4.88281836874361
O           15.47400977476741        3.93496998694089       -6.13572037624512
C           16.24921243311587        4.66197586692680       -4.05542758105817
C           16.12621697983518        4.67608066631000       -2.67456300281086
O           17.10285489283683        5.32115971607965       -1.90053434656357
C           17.25983971777291        4.85661189091187       -0.58496570852877
C           18.47924932049311        5.04538027851076        0.05730316909820
C           18.74134445500130        4.49488819852163        1.30793341862566
O           19.95212576153044        4.67787320331119        1.96487803875113
C           17.74439419685591        3.70406265361479        1.90244184829938
Cl          18.07229498318555        2.92704136779374        3.41738237380330
C           16.52292707742873        3.53147446193733        1.29270037553912
C           16.21529623415827        4.16090902204127        0.07515605643178
C           12.39011524319917        4.26644304775355       -0.59461988031449
C           12.22572168265885        5.05280753034296       -1.86741670862387
O           12.97912694877058        6.02667198886058       -2.04816307090689
O           11.30007970013137        4.70101086185588       -2.62239560149701
C           11.21677618284257        3.92046264611373        0.04905858433948
C            7.19441347316159        2.73333132936500        3.16541841834046
C            5.91119943674251        2.49229024812228        3.60702141393551
C            4.87999646137032        2.24427623929816        2.71495925739638
N            3.55683021716817        1.98838033014789        3.18262286496874
C            3.04353787272374        2.57187150226186        4.42370987097572
C            3.27172085078909        4.07319653754416        4.49310595716929
O            2.57505023352373        4.77066447030227        3.74854408729989
O            4.13162354890823        4.46320105777840        5.29107169417823
C            2.74060019531082        0.93417737616579        2.58099785940584
C            2.39989146357873       -0.15008166580658        3.58962834923770
O            1.31414670286620       -0.03846659735111        4.16969511586130
O            3.24440594307188       -1.03784241246852        3.74859867623557
H            3.31540108389732        2.63510893733341       -1.35503046375982
H            4.79336203451215        3.46437429349857       -0.87456449999339
H            6.69607790652210        2.44156422301831       -0.13624724277310
H            8.89336529721129        2.95931569124757        0.31807863354116
H           12.37331065030715        3.38111950939385        3.16490074015694
H           14.45544957745987        3.97130441283878        2.09027703087813
H           13.34070998656326        2.73990897381314       -2.42404201776258
H           17.07148660510787        5.18001296689822       -4.51001227208357
H           19.24262344218529        5.60593097767965       -0.44802473086340
H           20.54568949617956        5.23437777000886        1.41971245018535
H           15.84747927694466        2.81229532887714        1.72005433296279
H           10.29363464178502        4.07258720162898       -0.48005278745478
H            7.98389559937874        2.92594437850142        3.86885818941988
H            5.69706405703491        2.49932151228887        4.66145942882368
H            3.51767504818662        2.08011704998557        5.27465572917770
H            1.97319628562902        2.36913339356883        4.49401533814957
H            3.28500904711506        0.49323210643905        1.74449380127456
H            1.82708978179976        1.37664589552674        2.17992478048177
