28
 energy: -8.613751658957 gnorm: 0.000464530163 xtb: 6.5.0 (97a52f5)
O            1.47483259783773        0.86017856424255        0.11233779998711
C            2.36856517507316       -0.00651189005066        0.03631545544291
O            2.74789344917823       -0.58799442646655       -0.99980585470955
C            3.05967263007068       -0.38994619565027        1.32706702186822
C            2.64272805711967       -1.53671329812939        2.03291732596373
C            1.57829076298222       -2.35001568192100        1.56542164270505
C            1.17674859159758       -3.45129659256214        2.25905328389660
C            1.81331136497366       -3.80420188373180        3.46124783329508
C            2.83966572761917       -3.04977215734061        3.94397887778874
C            3.29241691009393       -1.89710962140929        3.25130666416437
C            4.35181845535794       -1.10690163549271        3.74323725314744
C            5.04050880646459       -1.48898424246810        5.03472257660187
O            4.79075427965932       -0.78776061331796        6.03550155293013
O            5.80242980798603       -2.47549509472565        4.99657471567407
C            4.76952177026847        0.03941925173455        3.03601073535043
C            5.83763602708055        0.85099515635856        3.49810902800099
C            6.23425164660776        1.95515192907548        2.80594434669417
C            5.58930452714158        2.31319964299156        1.60981018571345
C            4.56192699098670        1.55880692340074        1.12967328233069
C            4.11738596179888        0.40131985593621        1.81937748305023
H            1.08645183070288       -2.08060607885161        0.64451916974787
H            0.36438422526581       -4.05879606546484        1.88648986946134
H            1.48383690588484       -4.67900607652532        4.00331791502224
H            3.32510671843293       -3.32303561599228        4.86701793923228
H            6.33560578864660        0.57862775250776        4.41469983160044
H            7.04880637088228        2.56138630872270        3.17552487535619
H            5.91342416587849        3.19181881433829        1.07055982367552
H            4.06983045440839        1.83526297079182        0.21105936600835
