25
 energy: -6.752104894701 gnorm: 0.000738222897 xtb: 6.5.0 (97a52f5)
O            1.15306134630768       -0.25048159840243       -0.07859314142643
C            2.38130321741165       -0.08931198287322       -0.05346772265651
O            3.07870253101248       -0.00376717624660        0.96817063639317
C            3.11327075097072       -0.03724244226942       -1.36614238685052
C            4.19131570508922       -0.83370545580903       -1.53900505721835
C            4.91341688343224       -0.85400224102373       -2.75195060656225
C            4.46890112936342       -0.01186608234069       -3.77952228928820
C            5.14690760015470       -0.01331033384040       -5.02352065990266
C            6.21973812308564       -0.80995905996940       -5.24243182322872
C            6.70614988171012       -1.67562162613994       -4.22659141007982
C            7.82154462668098       -2.50628871467616       -4.44874479860422
C            8.28124001820436       -3.33591029341277       -3.46590833161877
C            7.64679421859588       -3.36800637683692       -2.22467732392796
C            6.56150596294786       -2.57316369498760       -1.98030426446621
C            6.05677629271905       -1.70496403843841       -2.96894699381584
O            3.38610555399500        0.83408739764832       -3.63295525663976
C            2.69582329960144        0.86578076693915       -2.43432655813927
O            1.76429358962568        1.63969703676163       -2.25134893593787
H            4.48731991061191       -1.46813738958358       -0.72471740623000
H            4.78303395930148        0.64154380390154       -5.79575159794525
H            6.72035548751450       -0.79537210701603       -6.19550989888178
H            8.30987424125176       -2.47945510479080       -5.40816462101868
H            9.13591765229581       -3.96764918933108       -3.64757309835535
H            8.01693354810614       -4.02509858890964       -1.45396391664772
H            6.08988447001024       -2.61313550835278       -1.01509253695108
