69
 energy: -14.710466226292 gnorm: 0.000873842869 xtb: 6.5.0 (97a52f5)
O            5.22642535869234        3.14865835328142        1.96016800916557
C            5.09502200802445        1.96886896533897        1.60460076361380
O            5.58715050767938        0.98093727598376        2.16798176970764
C            4.26253514631742        1.71515317878292        0.37871796467300
C            4.06281929719074        0.42491380725613       -0.08842259240074
C            3.29482517425354        0.20010182643038       -1.20699159912937
C            2.70531854171882        1.25074034939283       -1.88884915485186
C            1.84664529097768        0.94565076511058       -3.09049594050081
O            2.36220173007153        0.25186808627275       -3.97912935703540
O            0.69126920526761        1.39330948015901       -3.09211878983953
C            2.90540371102365        2.57176718580846       -1.43983109767848
C            2.33167810211096        3.74403180589152       -2.14579137288412
C            1.38290638150397        4.57049242883253       -1.51068767099851
C            0.90817523328448        4.29475949448137       -0.20802427410177
C           -0.00478291101327        5.08864563517681        0.41578422380469
C           -0.52064009306518        6.23897957434934       -0.25898695191443
C           -0.07445221624829        6.53019261635883       -1.55460456123897
C            0.87153117259726        5.70780592848699       -2.19358661884255
O            1.27404640936832        6.03261786423389       -3.46837840117113
C            2.20264250838945        5.22828097685824       -4.08747287480711
C            2.74971909818417        4.08186873082852       -3.44890894046442
C            3.72140172396287        3.32332660222611       -4.14056113181070
C            4.13325258076012        3.64276787770073       -5.39785562326350
C            3.57706639754253        4.78367054837041       -6.05643337258253
C            2.62318276189765        5.56189536669352       -5.38803248973193
C            2.02919649407559        6.77003599193053       -6.04204707924367
C            2.05325293328844        6.68560686886885       -7.57412371234218
C            3.43796965934480        6.27676611122022       -8.07268079454914
N            3.97852843728957        5.11097851659907       -7.34056687596964
C            4.96724008989788        4.30852417490910       -8.09201212403035
C            5.92948175742665        3.55999821375402       -7.17131925936037
C            5.16150318729530        2.79235040350339       -6.08592894025497
C           -0.59429111851410        7.72485910172084       -2.29144572622120
C           -1.98711750902537        8.15478346310106       -1.81183612307592
C           -2.02883493300862        8.24777627998488       -0.28774258198645
N           -1.45533817181502        7.04997981383228        0.36268261169001
C           -1.97193458203335        6.76980452105726        1.71945376173760
C           -0.97575614270960        5.98195748090699        2.56863079701951
C           -0.46105468617784        4.75277434486805        1.80610116251930
C            3.68547784779657        2.76904851541660       -0.30031919924465
H            4.51590913348138       -0.39561746419916        0.44103800393597
H            3.13875663847529       -0.80280145208967       -1.56621106778773
H            1.27759493191575        3.42531391859588        0.30414100161492
H            4.13994492734046        2.45830222637055       -3.65959242132844
H            1.00243246209336        6.90242230060543       -5.67736699530402
H            2.57894559016756        7.65741233133376       -5.70627051816667
H            1.74771782182368        7.64235648026069       -8.02074138429104
H            1.31248430809624        5.95022294147078       -7.91153709126927
H            4.14598890967090        7.10308293533914       -7.95516885302747
H            3.41468930972233        6.03674990308695       -9.14135559553182
H            5.51172663098041        4.97263738843224       -8.77249088301399
H            4.41548213539452        3.60330127928197       -8.72155471444767
H            6.61189277639924        4.27711814884493       -6.69832446884590
H            6.56875564756822        2.87895856878936       -7.75080581679532
H            5.85531607139860        2.38517952535604       -5.33858670992763
H            4.65891492322806        1.92350196547313       -6.52835308054908
H            0.11647406675776        8.55071224294617       -2.16757278459820
H           -0.60565585429227        7.50241805452226       -3.36623753946731
H           -2.73230435336501        7.42559007192599       -2.15302603278910
H           -2.27700051699139        9.11236061193042       -2.26690358662185
H           -3.05610646496147        8.38097906550489        0.06943774363689
H           -1.46369678962483        9.11926096993414        0.05796394007046
H           -2.90693461145185        6.21070383416818        1.61133737993174
H           -2.23106958634669        7.72068645070707        2.19858421104362
H           -1.43063544314304        5.68523653026385        3.52422181557232
H           -0.12998986097620        6.62962766121734        2.83067567264797
H           -1.25099056986101        3.99467414421089        1.74416258909535
H            0.36389037069263        4.27867535624419        2.35361531176602
H            3.84857101217982        3.76958548344450        0.05819604206885
