69
 energy: -14.709938841253 gnorm: 0.000600329615 xtb: 6.5.0 (97a52f5)
O            1.46644814818080       -2.18675818234239        2.01537610584350
C            1.20729002157234       -1.02688510872412        1.66416017617299
O            0.30579324735292       -0.68911996426807        0.88387532623354
C            2.06423813539995        0.06638618970884        2.23590012683817
C            1.84767951984229        1.39160771913188        1.88866357784547
C            2.63177013101305        2.38752805850535        2.41433520132141
C            3.66940655408483        2.10019599289405        3.30685536346557
C            4.47510386798019        3.20682090865983        3.88064805434669
C            4.42619792458328        3.50036450182358        5.25977413909535
C            3.61983544599156        2.75765136022090        6.15167354542869
C            3.56650429809242        3.03189792678715        7.48403307557097
C            4.33972140068366        4.11042182441412        8.01590361301822
C            5.13795411026773        4.87120954885862        7.15203270943669
C            5.18698443536233        4.58469089462701        5.77549028905628
O            5.96939544239841        5.37532974287725        4.96565539563721
C            6.01231175483450        5.09429126978313        3.61940420514303
C            5.27926443228260        4.01675195993948        3.05168516451978
C            5.39400617452218        3.77948650735960        1.66283211760778
C            6.16445885330333        4.55773873264645        0.85378061845038
C            6.88871801031516        5.65745984235813        1.41094507791039
C            6.80593851456311        5.90462300450627        2.78720362759147
C            7.55776152968856        7.04187479925634        3.40499089768039
C            7.83495726079835        8.17617375826156        2.40940635177007
C            8.42384888446530        7.62486722065287        1.11230760621408
N            7.66001314574580        6.46848805049669        0.59544562330589
C            7.75929301471527        6.25833439171783       -0.86443748413319
C            7.53287922034413        4.79929324775161       -1.25645904842680
C            6.24900039085233        4.25462402832665       -0.61466065312556
C            5.95744305928843        6.01066022689224        7.67227870604355
C            5.38837690660672        6.60854646227238        8.96597797865216
C            5.06285909308392        5.50811927055992        9.97413291333271
N            4.29108679783958        4.40117531205499        9.36884222835257
C            3.43772383370825        3.64724524725528       10.31225100628668
C            3.17328787250358        2.21740188146905        9.84327938858931
C            2.70005190937332        2.19792244181633        8.38296899563392
C            3.89654120937904        0.75083920354877        3.64739438922687
C            5.01729057492231        0.34236885956418        4.57021854793852
O            6.15540995120939        0.74877997745582        4.29921608249379
O            4.71079740356025       -0.38930561206029        5.52197429337143
C            3.08797277247077       -0.23479823704499        3.11586418377527
H            1.05106599147904        1.62531227662454        1.20350103893765
H            2.44718807980952        3.41515276106862        2.15125036294456
H            3.03484918727391        1.94403469006664        5.76358541985201
H            4.85892927175946        2.95206106593829        1.23392513459002
H            6.99288883609621        7.41410670273820        4.26929882216707
H            8.50182870693065        6.65967083192607        3.81088458760778
H            8.50530432937357        8.92657758786644        2.85139969045518
H            6.89985681401658        8.70572116898730        2.18949717423781
H            9.45755698156451        7.30047803459587        1.26837308935212
H            8.45409676771503        8.39787560046483        0.33623941347014
H            8.74106192116757        6.60853337732172       -1.20275199053909
H            7.01629267117092        6.90234671122689       -1.34594726301171
H            8.38919012937337        4.19769438624395       -0.92796834355312
H            7.49666002025087        4.69335639900746       -2.34984096761433
H            6.17473853768592        3.16985952581387       -0.76576123800386
H            5.37212648488988        4.68464740300702       -1.11350724567364
H            6.98190941196160        5.65784954375417        7.84106436612594
H            6.03410300408887        6.77872713836314        6.89183647466549
H            4.47746728782790        7.17544085676104        8.73751085820162
H            6.09018229701410        7.33501213667011        9.39931234423819
H            4.49355618777376        5.90826126625942       10.82051808623623
H            5.98322385164615        5.08595030554994       10.39017716897973
H            2.49556770731841        4.19411065402457       10.41991903401261
H            3.91595626343187        3.65451795755959       11.29816736155658
H            2.43802583555862        1.72643811424224       10.49636919113553
H            4.09360088389533        1.62779817953267        9.93670097409030
H            1.66924939796158        2.56726049715257        8.32026444618486
H            2.67081890803942        1.16839284784433        8.00292566610629
H            3.25766897977405       -1.26071128062913        3.39098682575430
