35
 energy: -10.025108412912 gnorm: 0.000555839094 xtb: 6.5.0 (97a52f5)
O            0.60586120918537       -2.68576965237449        1.44312163258660
C            1.44478447455808       -1.78243107369725        1.59232416122599
O            1.31218250953172       -0.76843243268202        2.29758416901931
C            2.76356116355888       -1.93830115946326        0.87285680268125
C            3.93168816046481       -1.93551190730326        1.61708600124129
C            5.15802436013116       -2.10398717969632        1.01113131993779
C            5.23175077843732       -2.27875178220004       -0.35808302762787
C            4.08259947793117       -2.27715642186382       -1.11463721772905
C            2.82751693925435       -2.10396563389991       -0.52509191488933
C            1.61176117315726       -2.08670992700616       -1.37803559952837
C            0.86304346614892       -0.90629227567783       -1.54479937338678
C            1.22675916618982        0.31953993540548       -0.90324479172415
C            0.50398224339482        1.44219965084000       -1.07978582009314
I            1.00073952993513        3.18499241650333       -0.17160163860345
C           -0.66941295818467        1.48915633868018       -1.92020612616864
O           -1.33510072751902        2.52261875986589       -2.07881142590254
C           -1.00437185023540        0.26032739699540       -2.55565764779136
I           -2.62169385284550        0.25478982315294       -3.75189027283696
C           -0.29263476975239       -0.91105992136619       -2.40322024868534
O           -0.71003128611304       -2.04491920930806       -3.08570327562143
C            0.04311618184374       -3.19808045501480       -2.91579787897248
C           -0.33119662001054       -4.34584869923768       -3.58256027481410
I           -1.95081992794005       -4.28156533544632       -4.77390810286705
C            0.35576947018808       -5.58864592257927       -3.48551896809609
O           -0.00965164184228       -6.59997440120948       -4.10211557523316
C            1.50794622422042       -5.58397779177300       -2.61450782662570
I            2.49498870656305       -7.34831801525829       -2.45548229163572
C            1.90838171224818       -4.48484203809158       -1.94653317066097
C            1.20588365488176       -3.24428433588608       -2.06850962552323
H            3.86583837485577       -1.80368199437028        2.68416860383778
H            6.05865074772511       -2.10458985604599        1.60455243668822
H            6.19054377279280       -2.41447304409764       -0.83348410174679
H            4.13834722824639       -2.40408942406800       -2.18302461681684
H            2.09034168028246        0.34679868277510       -0.25819398980560
H            2.77339122872215       -4.54575311459333       -1.30573032382745
