35
 energy: -7.133145591534 gnorm: 0.001803449934 xtb: 6.5.0 (97a52f5)
O            2.05230134442295        2.59739391659406        1.12303995341661
C            3.06311745870019        2.11675669504394        0.58864531703055
O            3.63011129279133        2.56885347902696       -0.41687881774059
C            3.65990887202224        0.88344521538851        1.22052407079626
C            4.98034870523278        0.86971874081878        1.52976691675219
C            5.53806589410707       -0.16842128711258        2.12272067597561
C            4.81810083691907       -1.23051948647404        2.44541450010710
C            3.53099106057794       -1.28268565009118        2.17251646369684
C            2.88595088491759       -0.25290323001285        1.54610497506034
C            1.49970483165468       -0.36867565335048        1.23849630265379
C            0.86755519403090       -0.15494295352979        0.08540765667326
C            1.42011602322400        0.11490972207931       -1.11347090185567
C            0.79054368188966        0.32753247845420       -2.22657924318939
C           -0.53018047409356        0.36161830372501       -2.61730399150533
O           -9.76838008516080        3.64694965193491       -3.52772744428050
C           -5.39428542417814       -6.12242915137645       -3.22657157343180
C           -2.82989509086296       -7.18016403556200       -0.93009098983158
O           -3.80250879720737       -7.59962414721491       -1.72063138920779
C           -2.01278130142646       -7.69886479166878       -0.02644292947856
C           -2.01858131397794       -8.97760647969966        0.29896917079685
C           -1.10674498277053       -9.24442296261274        1.24080243488777
O           -0.86594045726911      -10.42131073904094        1.77637446336184
C           -0.04060869121616      -10.92745539977148        2.70015223274160
C            3.15744389684989       -1.23521508008636        5.78251839085413
C            2.75257424175092       -0.10792496248897        5.60064008519587
H            6.62688910574147        5.07231287639296        1.98016826530315
H           16.47332514572479        1.08060564667108        6.70703777852864
H            5.25376028170757       -5.19443570566119        4.86665865546122
H            1.23756255032233       -5.54132532246528        2.74342152378878
H            5.04901330770406        3.41595585268607       -1.79959803864300
H            1.91072108260439        4.09626683942801       -0.46173186850771
H           -6.14655128477808       -4.58314109720083       -3.99000491418134
H           -2.86935878445246      -10.28099043301101       -0.29528279606630
H            2.37745582348470       -8.36056420987999        5.69357531257740
H            2.21108518866276        1.41052335674855        5.41170975938838
