132
 energy: -25.516888479898 gnorm: 0.000822065575 xtb: 6.5.0 (97a52f5)
C            2.43255334339720        0.66127877774490        1.66318719851662
C            3.69339618094498        1.52122031357995        1.45135254903080
C            3.82770545939910        2.53586856067377        2.60150478242897
C            4.92224989273585        0.59076199442014        1.47674813293807
C            3.57929268124019        2.27977698418669        0.11897008684238
C            2.48985228154048        3.11014412981022       -0.10885812241104
C            2.36181231822710        3.81632962307490       -1.28619530843651
C            3.32707264903738        3.72188799704001       -2.28105751511570
C            3.23053507904211        4.49878771956782       -3.45667062736891
C            3.19322569397579        5.28613963860974       -4.39012487662893
C            3.21223166261530        6.34382399341465       -5.32532268299743
C            2.82734621235527        6.14142695281178       -6.64307776088467
C            2.83431936394116        7.17461149418299       -7.56849619413411
C            2.44771474030437        6.96734722218271       -8.91032491537370
C            2.15508111652205        6.99019698393483      -10.09630619841720
C            1.85467626429614        7.20175183217382      -11.46006917315207
C            1.43563337625558        6.17227352617568      -12.29245184624657
C            1.13980022444135        6.41591745681307      -13.61771100235331
C            1.25092706507372        7.68943645647091      -14.16156253629221
C            0.89831964694825        7.92217112641976      -15.63986829083528
C            1.79566367342774        7.03773888080607      -16.52595764712139
C           -0.57994794670827        7.55809181678135      -15.87285652939237
C            1.10767338004396        9.39240145775512      -16.05370173390510
C            1.67320672233680        8.71539764790908      -13.32539024991574
C            1.97037926352112        8.47615054083280      -12.00079031494618
C            3.23723823427458        8.45794019651830       -7.16212826032225
C            3.24083006404816        9.51899693674409       -8.09091829561000
C            3.23497276079772       10.42802494099157       -8.90695868063035
C            3.21803169254918       11.45885113990598       -9.86915241002679
C            4.38617925122364       12.11509125685876      -10.23435609648826
C            4.36642941387431       13.11050995253771      -11.18820282027739
C            3.18474186987580       13.48670428799611      -11.81337885622480
C            3.20601041477403       14.59556129140793      -12.87780801767585
C            3.74328122729689       15.89541570438009      -12.24980480288441
C            4.11891510452628       14.16606822695299      -14.04160036628808
C            1.79899693379986       14.87458924656969      -13.44197810955609
C            2.01809717228789       12.82885295382962      -11.44366480904169
C            2.03250208633625       11.83469643582180      -10.48812776030732
C            3.63479036900516        8.68228526605098       -5.83427856012965
C            4.03826973223920        9.98111976695190       -5.46045573389739
C            4.36387164695788       11.14347449300451       -5.27388412193089
C            4.71555856490221       12.50736490569220       -5.18547510340076
C            4.68656400003171       13.31066722286860       -6.31866078523094
C            5.02658112506777       14.64472850726328       -6.24651500700036
C            5.40644439127616       15.22720870941699       -5.04421926573272
C            5.77536561690270       16.71921382111402       -5.00340226922586
C            6.97063138279470       16.97524022544186       -5.94057601109107
C            4.56708191904439       17.55573122972604       -5.46459678681735
C            6.16642470991420       17.17396684072221       -3.58331427651386
C            5.43268147020879       14.42015326895859       -3.91301075015897
C            5.09440386762882       13.08451962271517       -3.98047265519122
C            3.62466863142224        7.62395071405451       -4.91275519073057
C            4.02166335191188        7.81654913260918       -3.57339097477767
C            4.34527524440213        7.84480230725344       -2.39543746408792
C            4.69063761235434        7.73865499915064       -1.03112808246531
C            5.18902347910414        8.81847586224407       -0.31381133472756
C            5.51872613607591        8.68601845353897        1.01913716731274
C            5.36550239300009        7.47644184398799        1.68510894027514
C            5.73609636777138        7.37099937866611        3.17327052691318
C            7.21696504540387        7.75152194001931        3.36081211821004
C            4.84676823866098        8.32935577461389        3.98681889033429
C            5.53274340215361        5.94172240920747        3.71329564618985
C            4.86521346567484        6.39987996846103        0.96371849752396
C            4.53561873802365        6.52829298428230       -0.36806304481700
C            4.42071081096964        2.89532847228315       -2.05614545174549
C            4.54209180305633        2.18713390882916       -0.87852906469766
H            2.50416300162004        0.08663085278508        2.58635313455108
H            2.30131239473269       -0.03993711327646        0.83914448740147
H            1.53624755406238        1.27714317166368        1.72551615553012
H            3.90297139446107        2.02896808890375        3.56320780351515
H            2.96855088378215        3.20446955006889        2.64163177293526
H            4.72152781915191        3.14501158455350        2.47206674155863
H            4.97466976565482        0.04620236490723        2.41932997169615
H            5.84715828378260        1.15785155990895        1.37462774502190
H            4.87412520660737       -0.14425546472937        0.67364223253286
H            1.73566848001244        3.21232354520898        0.65214859508414
H            1.51645536393211        4.46562651048609       -1.44089114877961
H            2.51593793769372        5.16010820890808       -6.95420270462648
H            1.34150350480768        5.17901603512211      -11.88730623106881
H            0.81229968628931        5.60325724243085      -14.24271450938307
H            1.64945191961501        5.98036882498421      -16.30932438115681
H            2.84751785051286        7.27067809153393      -16.36197605938750
H            1.57649299890526        7.19408215409141      -17.58194265087210
H           -0.77129080885698        6.51115740135103      -15.64095283674095
H           -0.86356609998134        7.72663590561290      -16.91151983663358
H           -1.22975155038158        8.16524367065173      -15.24296978090692
H            2.14563474225336        9.69461048572926      -15.91668192755222
H            0.47255981799731       10.05879783466111      -15.47056224072516
H            0.85886911685493        9.53712862363836      -17.10484849441126
H            1.77009495271131        9.71585449757682      -13.70777033389049
H            2.29235483417632        9.28156327280688      -11.36303603688612
H            5.31242777463952       11.83106028299053       -9.76391127115367
H            5.28497713767450       13.60332932491120      -11.45591813824129
H            4.76278418254550       15.76912710820114      -11.88792486279646
H            3.12443354944137       16.20042570793949      -11.40633570487973
H            3.74615360916827       16.70704242682827      -12.97701822455046
H            5.14242905663444       14.00868576935935      -13.70433076275548
H            4.13849827577981       14.92530510064648      -14.82310234961922
H            3.76569787564717       13.23540290140094      -14.48463993411037
H            1.11747977376750       15.19692971499502      -12.65514134993396
H            1.38396358049286       13.98693696626557      -13.91875863123530
H            1.83286419712475       15.66477274889941      -14.19184946286410
H            1.08373846211256       13.09215930761387      -11.90662603514524
H            1.11972188933435       11.33376208156453      -10.21236640075844
H            4.39118490018168       12.87361305459866       -7.25780552551601
H            4.99598664147267       15.24602297526016       -7.13863708452494
H            6.72794421170974       16.72074869599960       -6.97146360582243
H            7.83009859116339       16.37599799722069       -5.64100046592413
H            7.26611748821239       18.02396081179335       -5.91774906808778
H            4.28251864039071       17.31095738639898       -6.48707228636625
H            4.79374345536295       18.62104024277356       -5.42800359944133
H            3.70488377491808       17.37206007115589       -4.82394817519357
H            7.03216362099348       16.62167658986373       -3.21870589630882
H            5.34295254143668       17.03040591619711       -2.88418478047878
H            6.42440042975949       18.23282342312794       -3.57417735443163
H            5.71912796864771       14.83658287878124       -2.96363976078531
H            5.12049280508447       12.47154499585060       -3.09547849082278
H            5.31518999479028        9.76362699537077       -0.81413237764362
H            5.90041408626085        9.53793645810049        1.55480846709391
H            7.40675492803061        8.77757771527342        3.04870578802248
H            7.85974127165459        7.09805269704542        2.77146377470654
H            7.51299918493819        7.66139453726379        4.40569440045662
H            4.99072586370738        9.36312108403512        3.67516388564130
H            5.07640976352543        8.26625970033233        5.05024916712062
H            3.79355332363049        8.08274571235244        3.85440004275559
H            6.15075161553861        5.22691831207870        3.17063420002361
H            4.49049946576756        5.63525303938292        3.62938938032851
H            5.80872944218387        5.88255950455465        4.76597335269363
H            4.72768014826596        5.44733810507522        1.44302246521285
H            4.14791989151985        5.68519029801059       -0.91254525842987
H            5.18402012774482        2.82516789528783       -2.81271321034860
H            5.40408731764283        1.56000883576530       -0.73552411010719
