67
 energy: -12.942803237621 gnorm: 0.000447038357 xtb: 6.5.0 (97a52f5)
O            1.12163365331273       -1.84969357711037       -0.12867401419016
C            1.91672441996830       -1.14692862535766        0.50846761577721
O            1.88127101459342       -0.93008330159446        1.72705050365043
C            3.04646111845104       -0.50831464503303       -0.25819635125238
C            4.34324817614730       -0.70398535395470        0.18264130322181
C            5.41095799803662       -0.16487465896493       -0.49865847841757
C            5.19411325496779        0.58419596966027       -1.63831750315242
C            3.91351354859249        0.79739980593223       -2.08769678752180
C            2.81004213571437        0.26598379477168       -1.41271131883972
C            1.43874846025260        0.54640377198169       -1.90629893626401
C            0.53720414272704        1.32207124666596       -1.14501020050979
C            0.89014802988060        1.85311080245476        0.11376009724194
C            0.02576776630981        2.60028546664629        0.85626548535244
C           -1.28224318637988        2.86912275100544        0.35686330800385
C           -1.65405862769534        2.36711043160176       -0.89482114980302
C           -0.75759977867549        1.59948270588048       -1.65802538869453
O           -1.16637452830288        1.14312872871566       -2.89181558486513
C           -0.28825578916957        0.38483227412934       -3.63436084988337
C            1.01509473426494        0.07072843875957       -3.16619637939048
C            1.84664863214769       -0.73174270648950       -3.97625552517893
C            1.44582263996141       -1.19778748749729       -5.19266279577879
C            0.14303756814827       -0.87744525008151       -5.67583264093257
C           -0.70491140783965       -0.08977425497242       -4.88991457036232
C           -2.07908722135985        0.26424081867158       -5.36503530353716
C           -2.63989102967670       -0.75519698746308       -6.36534775090934
C           -1.61979978844173       -1.05311204822676       -7.46217573415081
N           -0.27982197648601       -1.35168855309935       -6.91308867783604
C            0.56781294663910       -2.21787323447193       -7.75959720590562
C            2.05765633795088       -1.99019526565185       -7.51167041169178
C            2.37685050815017       -2.04443954017597       -6.01104862219072
C           -3.01627806673702        2.63499512351952       -1.45342749066160
C           -4.06043162815051        2.90653807853653       -0.36236173312753
C           -3.54206765396845        3.93749575799190        0.63802992975303
N           -2.17633169664013        3.62347650438808        1.10916179649287
C           -1.83515919776892        4.15624279855072        2.44537058548100
C           -0.33313109236402        4.37301256105961        2.61978472988036
C            0.45443378510944        3.12562969869818        2.19523964717246
H            4.50483252809308       -1.29167620231707        1.07010302217020
H            6.41521293561672       -0.32930149089385       -0.14393931851779
H            6.02976590213881        1.00610627415850       -2.17205163934018
H            3.74274966909807        1.39471588835045       -2.96680887419775
H            1.87002282821657        1.64945256727731        0.50445204512627
H            2.82470211819650       -0.99218463591978       -3.61584195670317
H           -2.74152962252531        0.35975941751172       -4.49545248973698
H           -2.04626704980438        1.25960402820824       -5.82321076563766
H           -3.58234587960685       -0.39509974978932       -6.80029935650595
H           -2.89022419715921       -1.68388511829551       -5.83866550701519
H           -1.52136471809972       -0.19671109293934       -8.13642731373298
H           -1.94158797134511       -1.90012704933425       -8.07786711204767
H            0.31214723771089       -2.03838389501685       -8.80962381704460
H            0.29973870819769       -3.25736265436144       -7.54638018822570
H            2.34655760031894       -1.01055848171264       -7.91090447734615
H            2.65839004954038       -2.72598442794134       -8.06388554934950
H            3.41115221468757       -1.72712892145326       -5.82721206946422
H            2.31557652412703       -3.07936900087580       -5.65464065109470
H           -2.95445648019115        3.49119109135261       -2.13517625937097
H           -3.31780860695862        1.78238765682492       -2.07498403111811
H           -4.29045630677034        1.97225197798064        0.16373432415751
H           -5.00833107294464        3.24043661389452       -0.80633109496890
H           -4.20381710652129        4.00721656922346        1.50827360480018
H           -3.51800192993078        4.93292617915702        0.18376754529889
H           -2.20822067942551        3.44837748883873        3.19213768659918
H           -2.38625250160362        5.09060741171759        2.59879595631281
H           -0.10039126328817        4.64335430656131        3.65902617883969
H           -0.01664309833195        5.22921635981939        2.01202967308531
H            0.32543310714304        2.33194936931676        2.94045934791447
H            1.53044885976550        3.33991748122849        2.17283949014206
