15
 energy: -4.279055279179 gnorm: 0.000695417226 xtb: 6.5.0 (97a52f5)
O            1.15269322555362       -0.32225848691558       -0.42346469671847
C            2.29017554589212       -0.13224378234719        0.04064268560254
O            2.92436408882271       -0.91107164322648        0.77360876237575
C            2.98517769030676        1.14918232249784       -0.34615628473678
C            4.03937646170291        1.11081120040028       -1.24714281825440
C            4.68855007458291        2.26710134608690       -1.62214105276192
C            4.28957065904957        3.48468357073327       -1.09597217972394
C            3.24940543232390        3.54273516610615       -0.19706512335529
C            2.57505048558693        2.38177923155925        0.20274564737860
O            1.54179542882412        2.43246449457973        1.11951729969294
H            4.34231501207451        0.15954052042078       -1.65260325991627
H            5.50616799995674        2.22418900139952       -2.32504510928931
H            4.79807266791133        4.38993255572388       -1.39060105694878
H            2.94382358523405        4.48984383585452        0.21365470182545
H            1.38630164217781        3.36238066712714        1.39211248482989
