54
 energy: -9.650326939163 gnorm: 0.000583107336 xtb: 6.5.0 (97a52f5)
O            1.13734281129032       -0.19966928919056       -0.21566189558790
C            2.35194608500285       -0.16478369369885       -0.11046992140071
C            3.16457826009443        0.50546682878754       -1.14776459569268
C            2.70568158172328        1.68285460870309       -1.72453369059006
C            3.43325831969474        2.34746667293009       -2.68170246376569
F            2.91943383609459        3.45765242487058       -3.26129345697067
C            4.67769521935011        1.83566864240314       -3.09841303545931
N            5.44958666818783        2.53511770453458       -4.04537131871927
C            6.53089987527014        1.89753530488678       -4.82725264872772
C            7.90223605078574        2.37881030816055       -4.34477174365502
C            7.98442602089974        3.91450140782633       -4.40517925826822
C            6.81765764956151        4.56291933522042       -3.63796805682761
C            5.46689292268487        4.01206353628656       -4.11187347245434
C            5.11311941993303        0.63026674642630       -2.54428296963551
C            4.37699339265760       -0.03986196498043       -1.59501397748305
F            4.78760984549288       -1.25305990432835       -1.15750789398622
C            3.01028126951084       -0.78795074419279        1.05498194754718
C            2.43356549072315       -1.90417006711088        1.64690861626726
C            2.99683870425486       -2.51469563079247        2.74133119724129
F            2.36137052136988       -3.55872575398864        3.32309448222015
C            4.19364213836415       -2.01071401650327        3.28695357928682
N            4.78829021357768       -2.63495159308534        4.39950785122105
C            5.73999322308124       -1.94494306055330        5.29756774408254
C            7.13773819453481       -2.55659104394929        5.17376145805293
C            7.08707912775262       -4.06746258905403        5.45987846482383
C            6.05206973479680       -4.76695736890496        4.56007085139155
C            4.68004319885195       -4.08693721408777        4.65307291666896
C            4.75377274524270       -0.87289735040293        2.70325472596944
C            4.17733647019670       -0.25183661540714        1.61955705602743
F            4.69081096060767        0.91620439253611        1.16754564188303
H            1.75710960595510        2.08391653486350       -1.41750634512866
H            6.38346645817583        2.16773162525421       -5.87754821469231
H            6.43272798279648        0.80898478860097       -4.78292399910646
H            8.70683043108637        1.91810734317326       -4.93384265409546
H            8.05865242529285        2.04649097154057       -3.31180738322364
H            7.95752007338518        4.24016128989274       -5.45185588644573
H            8.94823796361616        4.26561663857087       -4.01223743843940
H            6.84620977059595        5.65626786995642       -3.73901341713185
H            6.93131604521998        4.35996828056652       -2.56646548409228
H            5.26358528116337        4.31030197655454       -5.14455661037228
H            4.64741701678073        4.40841754690956       -3.50554181342637
H            6.06068671943573        0.21559865210771       -2.82946622681101
H            1.51629962322416       -2.29510725334158        1.24599542065567
H            5.36853978009692       -2.05592104405817        6.32090037485959
H            5.73782284564441       -0.87028682800109        5.09501098569258
H            7.84670144454805       -2.05154973534098        5.84371788639542
H            7.51425531215402       -2.39128837156292        4.15759354383060
H            6.82445423708540       -4.23052330674936        6.51180254721649
H            8.08009769556430       -4.51896422561904        5.33132896369265
H            5.97238299793528       -5.83150030227730        4.81774552769908
H            6.39698628923830       -4.73807229957963        3.52002981135181
H            4.23965546653623       -4.22810424320924        5.64431347217359
H            3.97997722795359       -4.52325601780059        3.93506432026407
H            5.67441735493594       -0.47082990379603        3.07987648564117
