50
 energy: -9.022918160801 gnorm: 0.000229815721 xtb: 6.5.0 (97a52f5)
O            1.37560690628880        0.06729389541372       -0.05775826995771
C            2.59417349309450        0.08914036064707       -0.05464369186618
C            3.33030687566469        0.27078357371931        1.21304633792978
C            2.84524401664203       -0.30370039076337        2.38125544228114
C            3.50919282435715       -0.17200821195578        3.57685768211280
F            2.97111342806977       -0.69637955034702        4.70140911334205
C            4.70940656274019        0.56310539760326        3.63550441907666
N            5.42108451303522        0.69255217256149        4.84622895132598
C            5.23810431783408       -0.23200730260999        5.97035192756524
C            4.39942896571252        0.44651848416908        7.04810270217837
O            4.99512844801492        1.66900353406471        7.46333221228405
C            5.18788466369983        2.58353098955052        6.39011229054720
C            6.02687513025943        1.97038939783785        5.26885009637496
C            5.17031867214755        1.16968286874537        2.46589545582587
C            4.50079887991883        1.04118688744423        1.27206416405734
F            4.93862299023155        1.71052402461939        0.18197422283598
C            3.34283126336648       -0.06600877709506       -1.31853660948175
C            2.84494149774026        0.49288540088966       -2.48891248563410
C            3.51968688410356        0.38518919438314       -3.68087883200174
F            2.97015633186986        0.89148321919735       -4.80818548243344
C            4.74486042191718       -0.30803173003976       -3.73328091384138
N            5.46758275081175       -0.41092248202886       -4.93992934141486
C            5.26087624784159        0.50937421262016       -6.06340900742213
C            4.45714081876115       -0.19637801893128       -7.15023896473669
O            5.10105240533908       -1.39499523284712       -7.56306402369688
C            5.31716285143302       -2.30500558447978       -6.49045791786663
C            6.12273622734028       -1.66509399621542       -5.35967539799735
C            5.21941823640211       -0.90025517557487       -2.56177146627011
C            4.53906919580456       -0.79622241914016       -1.37168368841658
F            4.99323076472563       -1.45136269541889       -0.27965767841565
H            1.92760167716002       -0.86305729986991        2.35138607920713
H            6.22519250464217       -0.49359164773596        6.36391210037143
H            4.77733604746762       -1.15815205369241        5.60975720741925
H            4.28170553655367       -0.18277572252267        7.94043934040794
H            3.39730180344659        0.67755105155685        6.66693689380647
H            5.65999544299456        3.48074697943019        6.81236042839196
H            4.19571286064834        2.87429834214708        6.02455251450813
H            7.04524523069763        1.77179459396074        5.61566705964931
H            6.10196739546602        2.64912947607193        4.41422138967779
H            6.09038486320831        1.72286483817670        2.47437527003535
H            1.90854251864293        1.02048236584027       -2.46369310126638
H            6.24125230929028        0.80773848910106       -6.44746943591884
H            4.76355540734483        1.41720905053570       -5.70482312885425
H            4.32430211523463        0.43064249100151       -8.04205111571819
H            3.46082796199116       -0.46512150275667       -6.77864654157117
H            5.82561779270039       -3.18314272263041       -6.91060188437318
H            4.33292916152620       -2.63294382367721       -6.13505562306328
H            7.13673507628134       -1.42931032381266       -5.69590784914685
H            6.21355049739056       -2.34300642261904       -4.50591522152204
H            6.15789721215442       -1.42162820452568       -2.56550562833512
