26
 energy: -5.113778924012 gnorm: 0.000369569271 xtb: 6.5.0 (97a52f5)
O            0.95002251863131       -0.01328449062001        0.03622160562739
C            2.16291966137386        0.03340433567498       -0.02730617691065
C            2.81332249031475        1.12747455641354       -0.77559019536867
C            2.21051832890290        2.37990599720450       -0.81221071521139
C            2.78699068541703        3.42396766641532       -1.49218632268611
F            2.22625633850301        4.64743237623759       -1.51274422402926
C            3.99526976767673        3.23328650139284       -2.17958584616670
O            4.56092799580878        4.28068954072316       -2.84818834087752
C            4.58498589098525        1.97027521546948       -2.16683083597142
C            4.00331151229688        0.92294501061801       -1.49036514061973
F            4.54312110996890       -0.30945000546285       -1.57778884643525
C            2.96963546442298       -1.00434168145796        0.64499326907042
C            2.46859284603571       -2.29744883570638        0.74536805568161
C            3.19017285277500       -3.29122451634137        1.35900989677320
F            2.72496079277977       -4.55135759293890        1.44332184617157
C            4.44856541567133       -3.00761514175433        1.91114916430057
O            5.16048968496874       -4.00646473413900        2.51075135736643
C            4.93785516295712       -1.70448443280502        1.83695777947531
C            4.21094058497706       -0.70763341782404        1.22804754389162
F            4.66415752401311        0.56181984823941        1.25823745405158
H            1.27692465315014        2.53554817688747       -0.29740474316523
H            4.01396010967686        5.07614775599791       -2.75182492861281
H            5.50376801938699        1.81230427932847       -2.70394797576477
H            1.49891425370122       -2.52464116166112        0.33440696664995
H            4.66878366433458       -4.84174610075483        2.46793412443009
H            5.89495267127014       -1.47566914913670        2.27184522833000
