104
 energy: -22.974198723018 gnorm: 0.000782569249 xtb: 6.5.0 (97a52f5)
O           -1.16818799288636       -0.64133984836441        0.26494993730022
C            0.02470131533564       -0.40700817045717        0.17819834306397
C            0.73741834532384        0.25356779249967        1.30287552299167
C            1.61879572201967        1.31187257702867        1.09200279792168
C            2.26027392192238        1.90893767202065        2.15010355863603
C            2.03851707581120        1.47236163991817        3.45315416136498
N            2.70632312330405        2.09371297478767        4.56219602338752
C            2.77491831168501        3.47815896364806        4.82587432044371
C            2.25644328434445        4.57164550574434        4.13233633196001
C            2.44027622213533        5.83008715658961        4.64497132719552
C            3.13421075163877        6.04862590825159        5.85487929564527
C            3.30311830088985        7.41868302820987        6.38858226192991
C            2.26719514326138        8.34918904725186        6.31553375062675
C            2.42427168304826        9.62136262514935        6.82077857087237
C            3.61717800174327        9.99077829819778        7.40880240218717
C            4.65398890032186        9.08340315337098        7.49147653556348
C            4.49979532358414        7.81029662238278        6.98782233454549
C            3.64682137717755        4.95806372987819        6.54491173297195
C            3.46459765384299        3.67717388598446        6.03404633681773
C            3.84075137294807        2.37462223653324        6.53330214480649
C            4.53614616596003        1.97670558236423        7.67063638090278
C            4.76033617152486        0.62499481190165        7.89649470158352
C            5.49200958291674        0.17661143605870        9.10253014253471
C            5.08061488977021       -0.95142117094883        9.81151238816126
C            5.76232044545668       -1.36718867414287       10.93446886204462
C            6.86768123043085       -0.66631398384123       11.37281495367992
C            7.28967805173315        0.45345864211675       10.68462472717942
C            6.60978467485879        0.87231302936133        9.56169282778890
C            4.28216092251431       -0.31595718715829        6.95902407866757
C            3.59568377864973        0.06589873017067        5.83525109537175
C            3.36155699844361        1.42347525275633        5.61682117676431
C            1.14763028940026        0.42416361668570        3.66396367224110
C            0.50508936331557       -0.17137697190742        2.60637514182683
C            0.77840258828266       -0.79690481989734       -1.03526792564466
C            2.16879376291269       -0.88963936437464       -1.04364202671989
C            2.83844062706657       -1.28921097719021       -2.17427140348666
C            2.14106149796017       -1.62255823813376       -3.33158826329845
N            2.84174558326523       -2.07587005149111       -4.50058800289541
C            2.59470556653149       -3.27520923636076       -5.20094671720732
C            1.65029860545668       -4.27967521782197       -4.99095920210368
C            1.65889929113488       -5.37889533268880       -5.81039062733471
C            2.59771574179445       -5.52233895266843       -6.85506568536449
C            2.59295852946050       -6.73387552903808       -7.70548042202663
C            1.39562494661284       -7.29767585595317       -8.14439674362676
C            1.39516149099978       -8.43013039203831       -8.92944776518069
C            2.58801366330109       -9.02313991173890       -9.29158811212884
C            3.78359314786170       -8.47900150079790       -8.86759575388887
C            3.78760693151780       -7.34596775274715       -8.08354975048025
C            3.53733081221363       -4.52067371860889       -7.06145646168183
C            3.53681992408531       -3.40065321601712       -6.23603530997355
C            4.38844533054167       -2.23403118223012       -6.18311761077856
C            5.46541966112269       -1.82761282670335       -6.96429816573463
C            6.10110973733848       -0.62609427186951       -6.67980472445944
C            7.24641838486504       -0.17187392682960       -7.50000718992394
C            7.37840232935601        1.16657128285473       -7.86777158712901
C            8.44342019872051        1.58608745884508       -8.63490775604570
C            9.39814238995493        0.67962539761990       -9.05016078140610
C            9.28455521755453       -0.64963710299131       -8.69603482938728
C            8.22038084287702       -1.07256674877615       -7.92967218406871
C            5.63870975704000        0.15719012449349       -5.59995163926754
C            4.57943571812585       -0.23481867401223       -4.82266141931869
C            3.94498280073667       -1.44296855773120       -5.10967326919057
C            0.75225035469360       -1.53593224426552       -3.32373895767207
C            0.08491256109342       -1.12891058220357       -2.19389863321892
H            1.78745147933472        1.66064318600908        0.08768313247458
H            2.95359275447399        2.71436363249192        1.98272445509163
H            1.71524142789548        4.41522245438034        3.21669208853119
H            2.05433779581527        6.68176324828143        4.11240462353609
H            1.33079992016606        8.05776029193492        5.87223987297792
H            1.61314615632100       10.32833349281384        6.75890111949716
H            3.73889331965098       10.98621487842109        7.80344278286873
H            5.58571008399276        9.37098285248586        7.95070011231362
H            5.31229924668248        7.10687607571340        7.04577882193227
H            4.16104812284302        5.09451599695650        7.47788259385940
H            4.88336805988832        2.71230641260894        8.37193568551767
H            4.21034878746965       -1.49046317064293        9.47917066515748
H            5.43074103358750       -2.24020681041628       11.47260131028291
H            7.40007860121210       -0.99277586882854       12.25125559476484
H            8.15369505573991        1.00007329792380       11.02566599381999
H            6.94690341994423        1.73895270417464        9.01971160819798
H            4.47943614895332       -1.35953925543441        7.13219116499720
H            3.24759430543833       -0.65781546077432        5.12049430114044
H            0.95882852340158        0.09757750792958        4.67158668890132
H           -0.18675342336182       -0.97900079618265        2.77291227852042
H            2.71798103270923       -0.66235632237565       -0.14686898281690
H            3.91123195283311       -1.37206841475860       -2.17255220652122
H            0.94223263313769       -4.18676113274704       -4.18723831008617
H            0.94625762841708       -6.16861479078525       -5.64739829366432
H            0.46526879038211       -6.82968487775083       -7.87254062025828
H            0.46143150164677       -8.85328075142385       -9.26209575361903
H            2.58649017767052       -9.90977448091721       -9.90438978824215
H            4.71546982798989       -8.94198593729239       -9.14876187610845
H            4.72055103145449       -6.92954913126299       -7.74459424012341
H            4.25918817112045       -4.60350636009897       -7.85243639094773
H            5.78838570237717       -2.43429990862332       -7.78962114145377
H            6.62721232731587        1.87194672776274       -7.55688807168162
H            8.52996488600026        2.62360197098187       -8.91356304343900
H           10.23056763081932        1.00894108149682       -9.65045512957929
H           10.03061913561178       -1.35747701615664       -9.01865954760851
H            8.13898983124806       -2.10733260878556       -7.64507597741598
H            6.14505044800285        1.08110897608494       -5.38111015623268
H            4.22911460141986        0.37109694144034       -4.00644687857244
H            0.21042971453692       -1.78574450023234       -4.21911741971378
H           -0.98968624130898       -1.06745012549844       -2.18724998484734
