103
 energy: -23.318304446336 gnorm: 0.000834243801 xtb: 6.5.0 (97a52f5)
O            2.40719808174716       -1.56570390901020        3.71912405274558
C            3.09746583851492       -1.23028173516699        2.77199049423617
C            3.45979500699592       -2.16968327796945        1.67147787728519
C            4.79230147842212       -2.33341560438874        1.29339964035211
C            5.11060197896709       -2.87372461661150        0.07259974801246
C            4.10700947058566       -3.26657399486911       -0.81251561805273
N            4.41497661901973       -3.41222379856026       -2.21040218037669
C            4.01154101348256       -4.42354505010785       -3.10741433640331
C            3.38568980092527       -5.64764843753303       -2.87983714738377
C            3.10106142090427       -6.45206948597347       -3.95638130495679
C            3.42761682442325       -6.05792514594169       -5.25715177531273
C            4.04318843599322       -4.85302695744661       -5.49897842107998
C            4.34173402694065       -4.02566448870439       -4.41599344175897
C            4.93893402888205       -2.71156695227836       -4.33249231490940
C            5.38063082986007       -1.80976805633909       -5.29961772080061
C            5.84181232657933       -0.56556782862565       -4.90356289695619
N            6.30643277817876        0.38699048081455       -5.87676084622008
C            5.91977269752149        1.73987473054773       -5.96525813236285
C            4.98192263791827        2.47401722647192       -5.23927028438047
C            4.79855190831143        3.79837104447717       -5.54742709038258
C            5.53326916997402        4.41283415784853       -6.56320128548171
C            6.45835817642387        3.70522606911259       -7.29130059367391
C            6.65218733345780        2.35427653910523       -6.99603318529704
C            7.52029105384301        1.34961467816118       -7.56169143020188
C            8.46585821733661        1.39226462121082       -8.58799382222124
C            9.16198785321997        0.24717140251768       -8.89076354434857
C            8.93581246335205       -0.93996114705937       -8.18751724744158
C            8.00941197769491       -0.99774928056209       -7.17593120573385
C            7.28902617532315        0.15397982002802       -6.85927561649429
C            5.85617181446101       -0.22556937404513       -3.53936704890151
C            5.42300285889305       -1.10131873235099       -2.57970556296186
C            4.96711271490998       -2.35943119761892       -2.97380426926937
C            2.77992478952103       -3.22002710813007       -0.38386198674594
C            2.46148393615928       -2.67697002176411        0.83872315166991
C            3.53462828001837        0.17943205057107        2.56637888323803
C            2.63582602076781        1.21210290121162        2.82186009632207
C            2.90659825361567        2.47336355940010        2.36818615462534
C            4.09423691824893        2.68182932387309        1.68187726506098
N            4.33745260815661        3.87283544645518        0.91103302194291
C            5.57651428082406        4.54720095631542        0.80998795935978
C            6.68902286218437        4.53363514455383        1.65013905878838
C            7.79534047482101        5.26531750789664        1.29313505609928
C            7.81759072539248        6.00777295088286        0.10922400729831
C            6.73287956729868        6.02618463846289       -0.73435043919597
C            5.59997959327436        5.29258424929799       -0.38159061478311
C            4.34812929254235        5.05662067013998       -1.05971820725445
C            3.88111067153916        5.43442598258043       -2.31619258178629
C            2.65503972630461        4.96332133902256       -2.75150588931183
N            2.18502069092657        5.28325522515980       -4.07227641809941
C            1.65248079134446        4.36884840437495       -5.00608996307251
C            1.44026635825433        2.99188040783181       -4.92339921124227
C            0.95440702115180        2.32925539773529       -6.02296776733480
C            0.67508408670345        3.01139578267729       -7.21065702970392
C            0.88729476443699        4.36455586340235       -7.31432662702956
C            1.38581434107242        5.05122894370768       -6.20584615843366
C            1.75147254916240        6.43197545756015       -6.00440879887591
C            1.70150815101473        7.54822649840250       -6.84127836188718
C            2.13134543096862        8.75794859783072       -6.35275762347942
C            2.60857263405157        8.87605432590594       -5.04406947140513
C            2.66619062051367        7.78669012193491       -4.21048713878476
C            2.23986752894286        6.54834348558155       -4.69134381477284
C            1.89480370162377        4.12434374309956       -1.91720151630337
C            2.35078746690244        3.73211672294227       -0.68578802448516
C            3.58981408296226        4.19835748454071       -0.24650573106155
C            4.96963095722280        1.60910542678305        1.57137236884675
N            4.72331411293471        0.38283076983461        1.98037269057006
H            5.56593244948936       -1.94178853972090        1.93139796438740
H            6.13598021157197       -2.92152070901891       -0.25143212563356
H            3.13949468136534       -5.94265206887585       -1.87544114397009
H            2.61795862497632       -7.40195382313821       -3.79679435623895
H            3.19056258444861       -6.70863743539286       -6.08270066209906
H            4.29215680158550       -4.54068703706753       -6.49769137802790
H            5.34180108232668       -2.06697102057857       -6.34116778875620
H            4.40764025543613        1.99475267632708       -4.46710779566533
H            4.05223661463121        4.36686403133708       -5.01851010178045
H            5.36440447844060        5.45418482747208       -6.78238470712552
H            7.02628884795167        4.16935275026268       -8.07804224436019
H            8.63793560999280        2.31054609241501       -9.12101154388169
H            9.89555120445513        0.26363080424954       -9.67987770044995
H            9.49951658129730       -1.82216194746061       -8.44281979926717
H            7.83673279930783       -1.90478862081691       -6.62520741947682
H            6.22144907291970        0.74639443512005       -3.25777851296477
H            5.41450123907691       -0.83058410032742       -1.53942864062459
H            2.00367828464726       -3.52311431033667       -1.06470639388763
H            1.43183298594390       -2.55353657107992        1.12810311119449
H            1.70012838967657        0.98651674842283        3.30367639906971
H            2.20382370464434        3.27960372366664        2.48707128565009
H            6.66454712589211        3.95762882486156        2.55799057807532
H            8.66161187794264        5.26548474931682        1.93402694447234
H            8.70067507987407        6.56928556802853       -0.14774934274720
H            6.74599719497107        6.58461482452185       -1.65360946698209
H            4.48745920476121        6.04580778503572       -2.95717409796586
H            1.67839872636151        2.46564977121199       -4.01695750361046
H            0.79146529743385        1.26519516323037       -5.97286753442011
H            0.29381570610866        2.46596011726965       -8.05812204638748
H            0.68547932219206        4.89529983197574       -8.22785614708770
H            1.33091663397300        7.44930315327969       -7.84617666852151
H            2.09790615956955        9.62965725598170       -6.98527922193351
H            2.93416644827554        9.83824207364018       -4.68430574276557
H            3.01932598315926        7.87603742005785       -3.19909164614600
H            0.93491846899094        3.78795871942999       -2.26712989005469
H            1.78016522343614        3.06618414933101       -0.06412641141240
H            5.89399473903309        1.76714673729572        1.04074192351899
