110
 energy: -24.232087568192 gnorm: 0.000687667424 xtb: 6.5.0 (97a52f5)
O            5.55142951724220       -3.40734225066200        0.52204140108936
C            5.27309473113784       -2.23410928437657        0.35176780689372
C            5.32410046730533       -1.27142438927223        1.48944358986593
C            6.55050918298143       -0.91149765128923        2.03620826475110
C            6.61899667640599        0.00534339884665        3.05479614181267
C            5.46193626398367        0.60120239652689        3.56563604765675
C            5.53744345830981        1.62164099343888        4.63157387186184
C            6.50554047033066        2.62139832068169        4.59381805067303
C            6.81761867341483        3.43870706565355        5.78612282297297
C            7.04419302568730        4.81102552394061        5.66645876991370
C            7.34892701618647        5.57505150550125        6.77044013512033
C            7.44060989588034        4.98721484281994        8.01644735001980
C            7.23048177278334        3.62969964188145        8.15491276496764
C            6.92595656929202        2.86232785805109        7.05343477695598
C            7.25790252978688        2.90289462655403        3.35348423381809
C            8.63274105429866        3.15081116742166        3.38962737399376
C            9.33572093462377        3.39296624582222        2.23446200461933
C            8.69443196620932        3.41359555813895        1.00168098806842
C            9.47517410752546        3.64963193857883       -0.23565001848668
O           10.65781867115494        3.36451965259336       -0.28868592691551
C            8.78490245540387        4.23340766269606       -1.41411200697863
C            9.01273854346626        3.71369764503528       -2.68309224664860
C            8.37549936625999        4.24040470867070       -3.78001153320392
C            7.49647145522766        5.31206763732361       -3.64543527340276
N            6.79979950635155        5.83801595270619       -4.78312963368198
C            5.42167369755362        6.15146451969027       -4.83745619531314
C            4.41907012174215        6.04231212381924       -3.87390947146046
C            3.12642964277427        6.34819195245939       -4.22331670503913
C            2.80824490120201        6.75504603630147       -5.52080883734504
C            3.77988842342623        6.85283763989476       -6.48798708239067
C            5.09649776081759        6.54484913829939       -6.14666848899764
C            6.30992483520014        6.48437260857974       -6.92749179923273
C            6.56996376860647        6.74613937370486       -8.27216720977380
C            7.85231427732645        6.58230936983988       -8.73889370477863
C            8.87799987774175        6.16591087754799       -7.88730193107225
C            8.63456953214854        5.90103399234901       -6.56161700424317
C            7.33751352357140        6.05153794092769       -6.07235914071452
C            7.28493059165766        5.84422919613384       -2.37665435110884
C            7.91697898565408        5.31388219349160       -1.27917673158864
C            7.32271439088942        3.17964186991383        0.95913258897181
C            6.61814094516757        2.93434849761410        2.11084977837421
C            4.54890117045580        1.54585485926818        5.72880507006907
C            3.92566371280054        2.69295306851389        6.22456532000842
C            2.99854310108314        2.61103085492777        7.23872378457795
C            2.66660589899620        1.38334549370574        7.77603005374978
C            3.26265975059344        0.23569013062889        7.29218791140712
C            4.19077434281070        0.31354740181778        6.27827584699001
C            4.23023043074664        0.20428354938459        3.03746037888544
C            4.16316187276874       -0.71248909629448        2.01709604007318
C            4.91104239804711       -1.72586064674861       -0.98982444243604
C            4.95537714275852       -2.58059522803314       -2.08452033226992
C            4.65078142386208       -2.12738307175967       -3.34530733026115
C            4.28494001550356       -0.80042810214289       -3.55403238173398
N            3.97249094225273       -0.32416090178491       -4.87049807916393
C            3.17854027295956       -0.98594733694692       -5.83434955898941
C            2.48325296574629       -2.19372153557970       -5.77751350682620
C            1.75973173142563       -2.59516442210594       -6.87415221260684
C            1.70949003701116       -1.81233478098887       -8.02972735022671
C            2.37810323193914       -0.61345466441643       -8.09966813259158
C            3.11594624056596       -0.19346123865864       -6.99317313459707
C            3.88846078195457        1.00035995313559       -6.74039921655944
C            4.15900768755176        2.12291496995654       -7.52288539144444
C            4.93996157673983        3.12014515567095       -6.99189871839478
C            5.45893071014874        3.01252615115146       -5.70147633924905
C            5.20750450331045        1.91280631139264       -4.92178416853611
C            4.40242168972997        0.89718952209508       -5.43621916457946
C            4.23567371120472        0.05546222122204       -2.45703332533156
C            4.54801196700527       -0.39752465191068       -1.19875782751118
H            7.44724727252643       -1.35405205034963        1.63804324047120
H            7.57336889780013        0.28422826325705        3.46633297614144
H            6.97066907929727        5.26777900108974        4.69464008538636
H            7.51639635352321        6.63406212890909        6.66201022467140
H            7.67878199357193        5.58689098818190        8.87965478100976
H            7.30575238842573        3.16992010263481        9.12666348576445
H            6.77026467154422        1.80283167363699        7.15910805654482
H            9.13958073258836        3.13258075680962        4.33878753653305
H           10.39758478332166        3.56586683396844        2.26686559306384
H            9.69185092105788        2.88546601786416       -2.79004460179098
H            8.53213833658888        3.81233250981295       -4.75423041142886
H            4.66109034594852        5.70052816515325       -2.88405802587555
H            2.34350665535211        6.26662319224078       -3.48741773468777
H            1.78530956784103        6.98597267149857       -5.76856065845530
H            3.54089593895071        7.14695351475731       -7.49456777764707
H            5.77411459766263        7.06775249118547       -8.92031790674732
H            8.07098451651007        6.78047920222520       -9.77523325184792
H            9.87612167635068        6.05235677588421       -8.27714293705066
H            9.42531717098126        5.59650746493051       -5.90021238935796
H            6.63142618074068        6.69202784683830       -2.27033815272870
H            7.75268185116846        5.73434322913207       -0.30201694026671
H            6.81947702569930        3.17917531054708        0.00794032430499
H            5.55817835738324        2.75434851570981        2.06636840245373
H            4.17972861690274        3.64854543637859        5.79999969599216
H            2.53119671694184        3.50676907433393        7.61363731648711
H            1.94119256177530        1.32074980535085        8.57058757386684
H            3.00087809420111       -0.72291782421145        7.70916953002334
H            4.65834605416317       -0.57969329383026        5.90170473643570
H            3.33012101579678        0.64437226290357        3.43018077918542
H            3.21108345123342       -1.00453304085142        1.60865711155564
H            5.24372391855929       -3.60560990063140       -1.92737352344530
H            4.71529087870891       -2.78911191682640       -4.19086856337207
H            2.50725684845266       -2.78448956934397       -4.87983460319785
H            1.21869722925194       -3.52652302335497       -6.84203879269861
H            1.13381006320534       -2.15113229656899       -8.87528181986000
H            2.33792069276272       -0.00018339753874       -8.98240590057795
H            3.75521844361773        2.19637487704288       -8.51703542500441
H            5.15320409216511        4.00077725842425       -7.57422973381290
H            6.04005419988370        3.82574819820746       -5.30286416816280
H            5.62045878227682        1.82598735960875       -3.93326483343167
H            3.92909022958718        1.07575084866639       -2.60580792716729
H            4.51446589296205        0.27726247724556       -0.36190263254301
