82
 energy: -16.704522838270 gnorm: 0.000588983798 xtb: 6.5.0 (97a52f5)
O            4.25342022517858       -0.36461955826159       -0.89629813481380
C            4.17215756572333        0.78478151545661       -1.27381192379007
C            5.18369251451754        1.32987076583417       -2.20881064053264
C            5.73715125312752        2.60131189360815       -2.07185048252018
C            6.65522635683496        3.06857260919479       -2.97716026410250
C            7.06621113859572        2.28021190454322       -4.05126505121224
N            7.98943308879544        2.78544022883090       -5.01740881572942
C            8.97583924044885        3.75793370082407       -4.63545965770922
C            9.25422636451489        4.84662985027774       -5.45744808831669
C           10.19564629675712        5.78106757025301       -5.08965333722410
C           10.87762077647961        5.64422163335152       -3.89665977945036
C           10.61475815770421        4.56811507522392       -3.07190279618881
C            9.67302789214533        3.63265501315763       -3.43673351131819
C            7.90081894824479        2.37377218689484       -6.39016503998486
C            9.05255877013765        2.19944500533663       -7.15257204358654
C            8.97026683128378        1.81372688155550       -8.47132477958348
C            7.73690734431931        1.59641111098887       -9.05316002882842
C            6.58493611373709        1.76829178995956       -8.31123673317534
C            6.66457846369295        2.15455387809141       -6.99248917079527
C            6.53842857079429        0.99471542952877       -4.16723975462298
C            5.61959389672125        0.52966127588298       -3.26110353059789
C            2.99381049133808        1.61631416042987       -0.79359696516086
C            3.28514806839968        2.51948503038659        0.43278990237218
C            4.12061710035889        1.83781366568946        1.49294704507104
C            5.34710930051928        2.36299631656409        1.86886756399031
C            6.11233127447170        1.74412669170008        2.83334063813281
C            5.66792608223783        0.58722229008405        3.44661194426251
F            6.41891316656137       -0.01879278251002        4.40305846788765
C            4.44415054172846        0.06070059929349        3.07651639533847
C            3.67933011821760        0.68009727686339        2.11204871001381
C            1.95650550905840        3.06697193246369        0.99569315973302
C            1.16374462670828        3.89332826467453       -0.06076727740917
O            1.90208604586389        5.08721480010765       -0.40377374213405
C           -0.20618522309962        4.29280570509422        0.50504101694344
C           -0.26662561513213        5.01138067045578        1.68312107486795
C           -1.48509670358678        5.39015923043327        2.18867191551322
C           -2.60746811802006        5.03262404481321        1.48748704539711
C           -2.45434946044865        4.31908986099888        0.32351453379279
N           -1.29173351850336        3.94433618312007       -0.18241988073261
C            0.95499416146336        3.01958178978134       -1.33963319235252
C            2.28148689673906        2.44326029199814       -1.92158508199350
O            3.10481676611978        3.55476255619785       -2.31632721685234
C            2.00144759997665        1.55200876614966       -3.13679956104612
C            1.23199955772657        0.41430832978098       -2.98011072496627
C            0.99989746428370       -0.40474500464350       -4.05606890886994
C            1.55229574752260       -0.05165351910189       -5.25987560047841
C            2.30129590896190        1.09776632593968       -5.32557920192489
N            2.53398970803098        1.90325448753691       -4.30211580539546
H            5.43097504183277        3.22442349036371       -1.25262785848997
H            7.05320598514503        4.06336609016176       -2.88102842338081
H            8.71327802887483        4.95072206393820       -6.38161692581562
H           10.39966130134650        6.62099467684946       -5.73313181673994
H           11.61450094841197        6.37624268638009       -3.60956359299940
H           11.14809159168591        4.46020372099687       -2.14179644640115
H            9.47015304570741        2.78705670469802       -2.80314016762024
H           10.01046965476293        2.36477196547549       -6.69156542874006
H            9.86941270137025        1.68078800091850       -9.05012500338526
H            7.67350797762932        1.29449888102384      -10.08567762209252
H            5.62242131202686        1.60167396698219       -8.76604507029383
H            5.76981857771036        2.30105030309005       -6.41327754961222
H            6.86573907103172        0.36825031351606       -4.97824870912019
H            5.21004036546745       -0.46105590286499       -3.35814610147859
H            2.25463356979423        0.87979002899876       -0.45037385826181
H            3.85461959813743        3.38344689594594        0.06503623275493
H            5.70151829807094        3.26443983587994        1.39953302607785
H            7.06510083229978        2.14965688384847        3.12455629244758
H            4.10401515647624       -0.84118269376552        3.55387298177463
H            2.73277139010023        0.25660677443724        1.82421777708372
H            2.15426164156442        3.67788782885986        1.88034870799440
H            1.33314248575634        2.23733150566519        1.33953901577105
H            1.93910941479368        5.69024558462515        0.36215791677277
H            0.63793838763832        5.27443408968155        2.20240549077113
H           -1.55623703936343        5.95254488270036        3.10545263700494
H           -3.58800564796119        5.30663942609590        1.84076427349432
H           -3.33214512800878        4.03331971784155       -0.23644265241016
H            0.47222314876057        3.63198841036969       -2.10326465596176
H            0.26095902864004        2.20856988735540       -1.11081954707998
H            2.85706067358587        4.29773457477681       -1.72782207338697
H            0.82351455371726        0.16758747924613       -2.01597770164584
H            0.40524782018261       -1.29821415541223       -3.95680255283210
H            1.40171421326336       -0.66219104425987       -6.13503851837931
H            2.74133469226564        1.38551940078284       -6.26837476575536
