79
 energy: -16.009493592769 gnorm: 0.000524386543 xtb: 6.5.0 (97a52f5)
O            2.98348854241208       -0.50912268231179        3.56404005302075
C            2.25359774335285       -0.46522467245170        2.60038218831175
C            0.91062359321050        0.13964337289763        2.70387457175763
C           -0.11937163559185       -0.13894219384124        1.80586420954697
C           -1.35469457355383        0.43842768927485        1.95451143154751
C           -1.61600652549472        1.31273901691632        3.00872989257234
N           -2.91109326357831        1.89375993567713        3.17291312913749
C           -4.08332747335021        1.17605076885487        2.75448227176788
C           -5.14474079456820        1.84237089901460        2.14791770967787
C           -6.26925042971439        1.15540378408253        1.74957029173866
C           -6.35540027005229       -0.20839426721140        1.95035137273741
C           -5.31228556681383       -0.88319525096023        2.55369025267257
C           -4.18708180380439       -0.19840483704836        2.95343317582400
C           -3.05601284998996        3.19026175380706        3.77410397437287
C           -4.10556076441592        3.45160735929388        4.65096497004216
C           -4.24972639652026        4.69524005600927        5.22335796110507
C           -3.34976001178870        5.70088525436483        4.92969249448615
C           -2.30484119754289        5.45822155055164        4.05973334737723
C           -2.15839612003700        4.21524787567316        3.48633089703065
C           -0.58714323865368        1.58652939345116        3.90908943147200
C            0.64798315928942        1.00809248377712        3.75862881912248
C            2.74202757888078       -1.02097681615685        1.27913802784304
C            4.03837638198929       -0.29684605452715        0.83435753031141
C            3.82447337837846        1.18556704327302        0.74730657265201
C            4.48769950825120        2.12875999979401        1.45751554399310
C            4.05775266324423        3.46053921314635        1.18009870274651
C            3.07413547328073        3.52269775442929        0.25924980811173
S            2.65352159280570        1.94106133451715       -0.29650712658761
C            4.56533609089598       -0.87189026783990       -0.49477004232659
C            4.81490032766405       -2.40325114934033       -0.42935456305904
O            5.86972981122500       -2.68605761482194        0.51236904868852
C            5.20139147018808       -2.90171427032977       -1.82453203985548
C            6.49051743262671       -3.33651869544387       -2.05338028927920
C            6.85018194386075       -3.77091885412882       -3.30453722599958
C            5.89175994031990       -3.74705926691757       -4.28541735247827
C            4.63425447307946       -3.29175961584236       -3.96645379984141
N            4.26518108542056       -2.86787666293715       -2.76960857388498
C            3.51441694359298       -3.11844061368003        0.03310555631914
C            2.96335704242160       -2.56749537146114        1.38262204473896
O            3.90918804324112       -2.82956225404066        2.43028498028756
C            1.63163211999297       -3.23512395155336        1.74531547290113
C            0.63219031721551       -3.34902137920563        0.79583164570959
C           -0.58288910622790       -3.88049202651734        1.14752399086287
C           -0.75646287445397       -4.27256120276719        2.44951319888683
C            0.28793195609170       -4.11211138728820        3.32752416913926
N            1.46779977710574       -3.60331684637992        3.01068067562481
H            0.04143585801623       -0.83945029124604        1.00742352894853
H           -2.14091970787813        0.22231479559689        1.25271535225524
H           -5.06788549141881        2.90357021161001        1.98817203156294
H           -7.08318139099846        1.68229752865669        1.27931149556867
H           -7.23601302561602       -0.74523425411187        1.63790458616419
H           -5.38031689997508       -1.94674701440364        2.71342137821450
H           -3.37655602133892       -0.71658230153364        3.43521794579536
H           -4.79909382682141        2.66179430008773        4.88075826847428
H           -5.06507115138055        4.88419738886108        5.90213808050671
H           -3.46347103959274        6.67409885083785        5.37828054461187
H           -1.60427739259016        6.24360999227044        3.82814005174915
H           -1.35326257754202        4.02353372090151        2.79883463463720
H           -0.78183146197480        2.24425078175233        4.73774419134754
H            1.43640152785524        1.21431143027422        4.46189935729755
H            1.98759133806613       -0.83481049237614        0.50735239882780
H            4.78916066563143       -0.48470556116725        1.61611925890357
H            5.25836144503639        1.89010881114025        2.17452534478213
H            4.47655601377295        4.32966108726050        1.66659458586523
H            2.60368661149565        4.42168592592513       -0.09215961061576
H            5.49407794089350       -0.37004804414098       -0.78182587648350
H            3.84838606324564       -0.65781808730670       -1.29192965794071
H            5.43515171782902       -2.73852617916720        1.38689189475290
H            7.19835342259790       -3.33153000430489       -1.24282881756769
H            7.84986306486623       -4.11815856430252       -3.50881831799867
H            6.12038958825725       -4.07690955924116       -5.28553705474551
H            3.87581384731605       -3.26782680944071       -4.73457148023263
H            3.71693361961497       -4.18539855026701        0.14430331756909
H            2.76563107167953       -3.02353848529535       -0.75440472138654
H            3.53765912214203       -2.44638537054530        3.25308658078525
H            0.79500689095946       -3.00229181763547       -0.20912296887025
H           -1.37746503098412       -3.97917866905878        0.42589880117768
H           -1.69311636356656       -4.69238945591652        2.77775904328530
H            0.15813807852639       -4.41125364748775        4.35675743198600
