66
 energy: -14.498521747636 gnorm: 0.000662394455 xtb: 6.5.0 (97a52f5)
O            0.52554155763695        0.41624848111120       -0.06697391050553
C            1.74329957793834        0.29297801349365       -0.08201867606159
C            2.46973244573858       -0.06212829081115        1.15532326908581
C            3.77932315671225        0.36438157510465        1.38762093167779
C            4.43512410821719        0.01955880458980        2.54003906949782
C            3.80702121311082       -0.76015999558570        3.51539743409868
N            4.51353978175902       -1.14883285868055        4.70896375767774
C            4.08575029598703       -0.70737200409240        5.99501136174139
C            2.96323284914361        0.09078897009514        6.14809513828033
C            2.56381556182502        0.52954984406601        7.39516552803161
C            3.29010447955959        0.17988228352648        8.51188609233411
C            4.41837289462854       -0.60293536292948        8.38156364257545
C            4.83809883508939       -1.05369382724022        7.13560773707522
O            5.99667094915437       -1.82421527435869        7.05512043999877
C            6.40067813281172       -2.27100164691205        5.79830600983887
C            7.53771424677871       -3.06453455198387        5.70103867150029
C            7.96422061808490       -3.54985396927135        4.48214617812928
C            7.25690443309967       -3.25230655505049        3.33847314889138
C            6.12723162694698       -2.46153522313711        3.41329316169364
C            5.68727030981358       -1.95323831016272        4.62540343864257
C            2.48635444435732       -1.16259781909392        3.29388983093220
C            1.83221084467618       -0.81505146177420        2.13977045346770
C            2.49563737979528        0.49860248030995       -1.33730974191584
C            3.69451287759426       -0.17022987481588       -1.59429206814685
C            4.37629940754820        0.03704662222797       -2.76442367380443
C            3.88466263482003        0.91618254191249       -3.73349531009085
N            4.62070071843984        1.15072837239947       -4.94923173463948
C            4.08273400872495        0.78366552857593       -6.21718860405760
C            2.81965303792656        0.22503396226794       -6.33187112042302
C            2.31087030541508       -0.14323307414368       -7.56174083138452
C            3.06539326904554        0.03639461171704       -8.69969711580277
C            4.33045834433299        0.57848595985849       -8.60774979357601
C            4.86140979079434        0.95448526782284       -7.37954226713266
O            6.15251754154297        1.47835481087458       -7.33799879914386
C            6.66998439372740        1.84892531777297       -6.09818025763163
C            7.94911954625778        2.38946896877411       -6.03826891006061
C            8.49593597160126        2.79171398927480       -4.83728781855247
C            7.76887024624191        2.66503873810536       -3.67458912390177
C            6.49794486323408        2.12614302857974       -3.71216825965983
C            5.93426761608657        1.70238388440934       -4.90539368279281
C            2.67105285102215        1.56512998105187       -3.48612803489590
C            1.99044199699471        1.35451499107001       -2.31438274905145
H            4.26694051723339        0.98499230457404        0.65619483284554
H            5.44290548225246        0.35311741821466        2.71567469650678
H            2.40314452192936        0.37812876034968        5.27686718714579
H            1.68582581521708        1.14641098151383        7.49333960074226
H            2.98084479289926        0.52117820206971        9.48610430960772
H            4.99884571988541       -0.87488229740910        9.24503923720340
H            8.07695883924484       -3.29746999865444        6.60184663466198
H            8.84676020903206       -4.16569048000881        4.42628427850143
H            7.58360010629374       -3.63594940478873        2.38603137429518
H            5.56979942096985       -2.24175929380226        2.52079394417114
H            1.99716818701494       -1.76517484022812        4.03903485626797
H            0.81521816771064       -1.12563890884392        1.97271332846297
H            4.07327161731976       -0.86869277580510       -0.86871815680092
H            5.29788953743285       -0.48322521768012       -2.95851300508952
H            2.23387553678596        0.06949012102265       -5.44429319838081
H            1.32507183334368       -0.57275510042775       -7.63023299762945
H            2.67060941069666       -0.25031634278874       -9.66052092842832
H            4.93266037537772        0.71542474838124       -9.48810182290858
H            8.50341530259881        2.49187122696981       -6.95405025416031
H            9.48856933687560        3.21034557396929       -4.81047235458782
H            8.19071814485533        2.98625200811826       -2.73653636450554
H            5.92819368468972        2.03895781087667       -2.80472523389440
H            2.28790838484950        2.24611874638362       -4.22575008307092
H            1.05535589133994        1.85375982894599       -2.12744269288332
