78
 energy: -17.152275652753 gnorm: 0.000217801063 xtb: 6.5.0 (97a52f5)
O            0.57288807133881       -0.13984624209467        0.23137484131941
C            1.73263512978199       -0.50570408098256        0.12575592919564
C            2.59884369961636       -0.58850176034382        1.32165429483691
C            3.97671614605634       -0.37488840448056        1.25536099806674
C            4.75543784838172       -0.47082983257103        2.37939294386347
C            4.18925110967195       -0.78033137948287        3.61955569375153
N            5.01264346833069       -0.91605870156032        4.79348625104759
C            4.82687786540164       -0.06785817083162        5.92276028197363
C            3.87625141222940        0.94128124160561        5.92053945626051
C            3.70565194218248        1.76416283640571        7.01560670815596
C            4.49287423076544        1.59373336810078        8.13339424863386
C            5.45552238177551        0.60708884927029        8.15236914940124
C            5.64523445174768       -0.23036086304582        7.05879783154946
O            6.64669191794278       -1.19574134671233        7.12022852917979
C            6.81471918399655       -2.03406080026293        6.02143996344748
C            7.79095015452401       -3.02268286955203        6.07655826758903
C            7.98047634612260       -3.89382245590238        5.02495211467344
C            7.19202632352015       -3.79397207370268        3.89956818218697
C            6.22072989614598       -2.81623680853015        3.82327041503224
C            6.02172284102835       -1.91966144228785        4.86196332136502
C            2.80581247520762       -0.96912319831671        3.68710045011990
C            2.02918976760520       -0.86860282603961        2.56165557803581
C            2.26767339137258       -0.88724477327296       -1.20383384937584
C            3.27702370297538       -1.83759477420712       -1.34516449158084
C            3.71843328379690       -2.21040192833317       -2.59531462394210
C            3.15668523059368       -1.65151129689420       -3.72181012202236
C            2.14467799884388       -0.70429557302482       -3.61313817893654
C            1.51513198669037       -0.16564994683417       -4.84539062917322
O            1.32032731762100       -0.90358219659787       -5.79814788003606
C            1.12965292146203        1.25676474052987       -4.91950944689157
C            0.19757394857574        1.65753446292536       -5.87331939281974
C           -0.16422948855294        2.97378232999866       -5.99647507962976
C            0.40258497907203        3.95022121272551       -5.17269300891365
N            0.03248156026951        5.33492675794306       -5.31368825449472
C           -0.59410487121603        6.03924888548724       -4.24552537774428
C           -0.85433924805448        5.42657952082551       -3.02935089966920
C           -1.47482068726545        6.11032717924076       -2.00331868979263
C           -1.85301892157316        7.42308141456976       -2.18154455025641
C           -1.61761434011191        8.04868019616845       -3.38727571654860
C           -0.99609453136954        7.37701863130262       -4.43409411876419
O           -0.80320609476898        8.04730588785346       -5.63924871734011
C           -0.18063004478494        7.35971007957314       -6.67752217962603
C            0.03613400083445        8.01880854246627       -7.88253235268470
C            0.67011213285725        7.38973366606509       -8.93282607063438
C            1.10435360123405        6.08963649715963       -8.79381800054886
C            0.89544002121317        5.41664992970814       -7.60691373819102
C            0.24611773625818        6.02335033848203       -6.54260452565147
C            1.34594546275577        3.54824310530359       -4.22209770355989
C            1.70212311902169        2.22983358778855       -4.09874909480783
C            1.70466256710985       -0.33982612866281       -2.34651863678318
H            4.42327304921987       -0.11715768036183        0.31081061720934
H            5.81621261931525       -0.29918432244327        2.32439856813269
H            3.27064208303334        1.08741135912189        5.04458079396572
H            2.95793005191918        2.53974963797716        6.99573477725293
H            4.36028740464016        2.23379870199009        8.99011027747609
H            6.08292616154436        0.47002542081182        9.01504966169725
H            8.39299438996299       -3.09667066679913        6.96463558860422
H            8.74044945080303       -4.65535810124500        5.08611601347235
H            7.33240152530954       -4.47928905938285        3.08001393741728
H            5.59783135545958       -2.75122486075950        2.94975258200421
H            2.36249007851655       -1.21384582850933        4.63643221807461
H            0.96429473875129       -1.01591314979848        2.61708847392692
H            3.69320102728390       -2.29972046159826       -0.46720959819181
H            4.49727925919457       -2.94882208203793       -2.69260050287593
H            3.48250152427643       -1.95067653180075       -4.70316010267263
H           -0.23297971224211        0.90954502839975       -6.51673610885196
H           -0.89613384094168        3.27305639735404       -6.72612968308767
H           -0.57604970289068        4.39764578631224       -2.89145235713615
H           -1.66479454288104        5.61687014541036       -1.06447257782711
H           -2.33748697998288        7.95888713520148       -1.38192435112407
H           -1.91662198975983        9.07001663037841       -3.54239282930827
H           -0.29877400501869        9.03658672600867       -7.97504232595957
H            0.83083829507637        7.91654777647110       -9.85904088026998
H            1.60757880430112        5.59862383750791       -9.61035185767301
H            1.24952289201249        4.40765140615686       -7.49685661640192
H            1.80395439493555        4.29712090389781       -3.59989836999303
H            2.44705116364153        1.93922785462838       -3.37894180427938
H            0.89556710619210        0.36056461032611       -2.24185366281108
