110
 energy: -23.615437847154 gnorm: 0.000728458238 xtb: 6.5.0 (97a52f5)
O           -0.96479296030642       -0.08177260849450        0.30656041491756
C            0.25219480452583       -0.02658089142494        0.23496714718230
C            1.10258293029801       -1.11235383445505        0.77364611065179
C            2.35053524991177       -0.83221180215830        1.32452252581201
C            3.15717566485419       -1.83976666151484        1.78454449476876
C            2.75183611786486       -3.17195091193622        1.71222697552989
N            3.64953463262111       -4.22292256027157        2.07377257873914
C            3.43141082899801       -5.54195096025761        1.51726169669557
C            2.43424220476092       -6.38747355938363        2.00263432630671
C            2.21611344699420       -7.61495669582022        1.41640741261007
C            2.98661028235170       -8.02181272608780        0.34275738388995
C            3.98479955574258       -7.19734912317481       -0.14163871136717
C            4.20353267374509       -5.97284903032813        0.44205313722106
Si           5.56028962647645       -4.80774345459095       -0.02899179727831
C            6.97038656686489       -5.72107965977161       -0.82190471893939
C            7.68423656406090       -6.64438085178895       -0.08908047026569
C            8.71262366155414       -7.35152227438743       -0.68094416758489
C            9.02312330344948       -7.13307148982038       -2.00859229133417
C            8.30636669279243       -6.20925916883877       -2.74319183382444
C            7.27954912472202       -5.50369899630896       -2.14718350280206
C            4.89080305910589       -3.45907066537123       -1.11863424443928
C            5.52631874077078       -2.23657549290398       -1.15746985672021
C            5.05467067969675       -1.23599677947048       -1.98439791219290
C            3.94348972463126       -1.46199336523515       -2.77167492244904
C            3.29746870172911       -2.68117892411348       -2.72191649111933
C            3.77389537090368       -3.67945952190177       -1.89494167428764
C            6.05509251306380       -4.05921724581354        1.58701863812496
C            7.33179849991736       -3.67415789006199        1.91811502571385
C            7.57765205858968       -3.09024567577803        3.14664164721474
C            6.53897661783473       -2.89604027608124        4.03833722000050
C            5.25860060380763       -3.28215942000051        3.70764456872382
C            4.99645271630487       -3.87254462158881        2.47164152031673
C            1.49286675963538       -3.44638244115539        1.17583139953586
C            0.68074464945796       -2.43638261989227        0.72222226300808
C            0.93166024200598        1.12903354499905       -0.39495098001604
C            2.10148407034823        0.95166866300088       -1.12929156845621
C            2.75809452004791        2.02452956377473       -1.67255736628608
C            2.27522311436383        3.32173095818997       -1.50316030141683
N            3.03901671724857        4.44235361254866       -1.95266699305579
C            2.81506228560003        5.73168599699427       -1.33289627989161
C            1.69817751300726        6.50874144474176       -1.63872742804480
C            1.48439476762504        7.70608778996471       -0.99170174982561
C            2.37829716650907        8.15123193108635       -0.03532592366487
C            3.49486323766055        7.39556553018577        0.26955762770475
C            3.70892460779244        6.20076437536465       -0.37425959414785
Si           5.19339047641155        5.12570850524056       -0.12626748528869
C            6.64045762675580        6.13207584892868        0.46129447513163
C            7.14864572068135        7.12756874321429       -0.34489812753464
C            8.20487855714898        7.90185258557581        0.09414465414288
C            8.74948812251779        7.67808633360354        1.34318403528170
C            8.23919310038136        6.68157905469437        2.15156111702500
C            7.18368689962503        5.90912341035120        1.70810146962392
C            4.78073569657934        3.72729701335375        1.02697150646060
C            5.60885528460848        2.62743540536566        1.09167713691133
C            5.31931965229145        1.59255666083625        1.95950423817930
C            4.19772926949668        1.66075701570731        2.76127218281528
C            3.35930671948528        2.75494158270028        2.68561681963221
C            3.65415013275177        3.78832615544690        1.81834394421268
C            5.49494748782670        4.42754173340969       -1.81070176318852
C            6.73358520844563        4.13655304550717       -2.32947075383472
C            6.83957795745466        3.60332876080912       -3.60030765900755
C            5.69963746909214        3.36625880913821       -4.34596657578805
C            4.45718911179105        3.65816334083445       -3.82733778718485
C            4.33588772771513        4.19489204058751       -2.54599978553680
C            1.09028488219604        3.49231390016068       -0.78531834329137
C            0.42722715513454        2.41669925590367       -0.24777564211948
H            2.67913810446828        0.19034835899853        1.37895853603206
H            4.13069153988323       -1.60890607659821        2.17743207905881
H            1.84133045673258       -6.06609324045536        2.84107252776206
H            1.44171609663513       -8.26090902832858        1.79645722430033
H            2.81351313905722       -8.98285062516122       -0.11294149770277
H            4.60055328106077       -7.50520607614742       -0.96940059586442
H            7.42806442182138       -6.80799891138933        0.94430415813272
H            9.27079665811617       -8.07314483424687       -0.10718495932215
H            9.82470870754492       -7.68482702495759       -2.47203372530233
H            8.54623480242219       -6.04014796081325       -3.78017827501122
H            6.71113080444270       -4.78182943845428       -2.70863565899065
H            6.38979068753773       -2.07416652925800       -0.53491852362295
H            5.55503901532147       -0.28212956029258       -2.01655545337083
H            3.57983356916878       -0.68624431898824       -3.42586623228705
H            2.42492396682998       -2.85513058613950       -3.33000128568679
H            3.27906404862435       -4.63459070812229       -1.84667893592722
H            8.13039693663091       -3.83165470039010        1.21345490852567
H            8.57817857808489       -2.78758133224498        3.40847182220224
H            6.73137540040081       -2.43863682765329        4.99501356950301
H            4.44427234104172       -3.12884887292007        4.39395035134970
H            1.16975190456211       -4.46810453772266        1.09580902678072
H           -0.28380163607660       -2.65677684796121        0.29853539430819
H            2.49181643471141       -0.04227565577526       -1.25709613915007
H            3.67717180446689        1.87324629965354       -2.20900751828284
H            1.00921049880850        6.15830114103296       -2.38729672198481
H            0.61660728565588        8.29827239661679       -1.23195045932498
H            2.20841371254463        9.08846412660156        0.46864074843510
H            4.20594642608031        7.73460189744402        1.00342002281378
H            6.71134081083980        7.29406021918748       -1.31518036267212
H            8.60203711394136        8.67957588531187       -0.53746079038045
H            9.57287865403260        8.28229211830729        1.68771769741313
H            8.66254512953762        6.50718721800561        3.12719577512878
H            6.77486238458895        5.12997919798214        2.32873082925794
H            6.48021753814738        2.58666780531390        0.46000553136884
H            5.96881358519641        0.73429535500935        2.01151079544102
H            3.97514618277297        0.85885739569886        3.44633757808438
H            2.47812044312353        2.80467736265048        3.30412470209460
H            3.00913963616313        4.64796614276336        1.75085638516177
H            7.61235139241062        4.32817187789794       -1.73776551735201
H            7.80984867566700        3.37385613736178       -4.00916275772466
H            5.78347131320642        2.95033495287906       -5.33658034658323
H            3.56512764287964        3.47193310141724       -4.39938221639170
H            0.70960844046671        4.48548817460974       -0.63223619986183
H           -0.47919209747324        2.55750611749047        0.31532351771846
