84
 energy: -18.339409054956 gnorm: 0.000614763275 xtb: 6.5.0 (97a52f5)
O            0.85477945726725       -0.07153492834114       -0.30177163368739
C            2.05169649793092       -0.24257576266789       -0.44604818565212
C            2.88565384159140        0.83573080141249       -1.04312278259549
C            2.57545286607405        2.12871371755915       -0.71805981732081
C            3.32251836410868        3.19837579585220       -1.20192953212083
C            4.41782373515298        3.00737121725431       -2.00349765802981
C            4.77581177382970        1.68340959791843       -2.37552333399384
C            5.90501706860433        1.43558617674955       -3.22031317800433
C            6.15057434854758        0.14311493986313       -3.63164204167264
C            5.34955061563036       -0.91847493282325       -3.22001736572781
C            4.30194584230813       -0.70358746890446       -2.38041855083223
C            3.98690401673265        0.59183785968016       -1.92313506248929
C            6.80841587939826        2.54252950147891       -3.58478404702309
C            8.02218794471123        2.30988268075147       -4.23668334257936
C            8.89213603412381        3.33746298754778       -4.52297532412489
C            8.58531788397961        4.62391804800975       -4.14778091745637
C            7.39152566608011        4.89746048816175       -3.48801978321415
C            6.48870430051084        3.85773016540230       -3.22350015302902
C            5.15716228331350        4.20447927988317       -2.57873803479013
C            5.33779121943024        5.36577093327439       -1.55818875870492
C            6.14690419553191        6.48310609813169       -2.12590697909072
C            7.09516540117661        6.25124850748684       -3.02804155621239
C            2.69448127003784       -1.51404336349692        0.00013643216852
C            2.23809786030229       -2.72280142674766       -0.49875893489963
C            1.09498378462646       -2.73188415095638       -1.47056343854377
C           -0.25822444898559       -2.95297078321169       -0.79514550888333
C           -1.40543625801019       -2.79831318137943       -1.74664439862422
C           -2.04929830710902       -3.90232597490519       -2.28487213669230
C           -3.07995961706555       -3.74059382785255       -3.18841323461737
C           -3.47463843908774       -2.47402368561778       -3.56861055697645
C           -2.83582221002204       -1.36831175585708       -3.04582006691404
C           -1.80611790502411       -1.53151504416486       -2.14256164418893
C            2.84265864481131       -3.94133145550472       -0.08941103480041
C            2.38036247999885       -5.20617802663198       -0.56308714311151
C            2.97013725083664       -6.36208434505847       -0.18748293849812
C            4.08265244566447       -6.36616107329630        0.70113953279262
C            4.70251601566086       -7.55948303321881        1.08859464049297
C            5.77152881681823       -7.54110960572058        1.94659021197728
C            6.25237601614542       -6.34191915589081        2.44406662055608
C            5.67503944724647       -5.12628858926571        2.09427961295190
C            6.16268457901785       -3.84925832145587        2.61278063998945
C            7.24061795783094       -3.76091852143713        3.48619704773850
C            7.68105238395353       -2.54064825604800        3.97096762192110
C            7.05800853328951       -1.37821573636113        3.59881846650214
C            5.96829607731767       -1.40669493254098        2.72012602331165
C            5.30483348744211       -0.21311763735147        2.32037334272287
C            4.25979767352616       -0.25188904190216        1.46433410159940
C            3.78259846892908       -1.47779152357363        0.92287388376384
C            4.40678078970519       -2.67690245925129        1.31096719251748
C            5.51471619708182       -2.64884688958297        2.21749960894142
C            3.93467665982581       -3.91594247842716        0.80351068330595
C            4.56834132204500       -5.13598504496704        1.20305025338533
H            1.73114762673747        2.30934428902354       -0.07478167310128
H            3.01751510658251        4.19847469494687       -0.95027682350720
H            6.97502543019585       -0.06548572739383       -4.28817749053351
H            5.56948624767953       -1.91731026992495       -3.56058987512654
H            3.69804581491332       -1.53357612545358       -2.06635878969662
H            8.30135707674533        1.30934332473184       -4.51125942217996
H            9.82195403596312        3.13205762448557       -5.02818164509625
H            9.27237293574833        5.42784357942314       -4.34918058946107
H            4.52245305740619        4.58996482783030       -3.39341119537410
H            5.83402209995141        4.97144129514775       -0.66460282227842
H            4.36392122942084        5.74160008394081       -1.22347760956000
H            5.95572518425219        7.49044162917418       -1.79311835314289
H            7.68256069184316        7.06236097541834       -3.42243168236798
H            1.26212817509776       -3.47993187891780       -2.25244372892809
H            1.07460573926437       -1.77761491494865       -2.00844894724242
H           -0.37365894822780       -2.23322971649306        0.02342648271492
H           -0.29147322875931       -3.93977431667170       -0.32095394972445
H           -1.73501307491257       -4.88982174681396       -1.99257312550228
H           -3.57668825908799       -4.60487688309326       -3.59865516159358
H           -4.27837980382092       -2.34825472828561       -4.27561931002176
H           -3.13798070879177       -0.37789332877209       -3.34514100415304
H           -1.29039170812570       -0.67703984129741       -1.73792676764408
H            1.53710775694511       -5.24208599885656       -1.22895643271709
H            2.60300121981076       -7.30370461895671       -0.55804939517698
H            4.33025690207010       -8.49338883097163        0.70379778945635
H            6.24064339890787       -8.46702083526697        2.23700982551199
H            7.09050271417873       -6.36254650750777        3.11613660395038
H            7.75047749450720       -4.65363023651764        3.79865230538436
H            8.51959619361493       -2.50528946572224        4.64727951171099
H            7.40178041047829       -0.43111141374979        3.97777195230068
H            5.65201618978992        0.72790361514671        2.71083934862126
H            3.77546278680071        0.66316506431488        1.17618513292817
