76
 energy: -15.744246807909 gnorm: 0.000950828044 xtb: 6.5.0 (97a52f5)
O            5.88840540269072        2.22935055981960        0.26292024551234
C            6.08520387542069        1.30583575567557       -0.50319543706293
C            6.04795536206184       -0.10005908250546       -0.00564917910852
C            7.06217603324213       -0.55771582251172        0.82649523451906
C            7.04806555547595       -1.84926221924750        1.30420508724942
C            6.00936977732800       -2.69546630176393        0.97502569684199
C            4.98079266030742       -2.24457954779242        0.17232282824717
C            4.99669458811368       -0.95538091563791       -0.31335552750974
C            6.41878564622229        1.57935284407595       -1.93484617384709
C            5.60173930132129        1.12605827568603       -2.96889573789815
C            5.91791457291700        1.36639665409813       -4.30290770287575
C            6.94405069024141        2.26533297554282       -4.57724544222586
C            7.77796718131804        2.70571749547350       -3.56590475406607
C            7.60195487181964        2.26985989972241       -2.25658816921685
C            8.78920963057616        2.22425243395531       -1.32548996658761
C            9.63832185196798        0.90482788855345       -1.47681515485020
C            9.16895004060362        0.01507713915284       -2.60455754549945
C            9.46759817045638        0.34660084674384       -3.92261294476907
C            8.64812462256348       -0.08047490839046       -4.95278676824765
C            7.52106797816629       -0.85875310203019       -4.70101959308190
C            7.38082904574526       -1.43273853272613       -3.41412870505672
C            6.39700554890620       -2.50675470046164       -3.11171408083644
C            5.02539284501724       -2.34891463326941       -3.31132191514139
C            4.14556937247348       -3.36438112753172       -3.03155930579033
C            4.59588124805320       -4.58567202515262       -2.53435084922073
N            3.67328051571661       -5.64351388538772       -2.25460868938832
C            2.45729438782796       -5.75277468107162       -3.01303335557299
C            1.25445751394805       -6.06779208298326       -2.38553796690789
C            0.08837747800510       -6.16564009880473       -3.11125271178720
C            0.10227776647491       -5.95272327520446       -4.47607108665982
C            1.28793855292560       -5.64279087108879       -5.11363310845617
C            2.45517924613391       -5.54412578777759       -4.39010164381347
C            3.93233473435060       -6.58707124912885       -1.20378192380350
C            3.56784563829172       -7.92395219741951       -1.34357236774892
C            3.80101144930451       -8.82614641381896       -0.32979872818402
C            4.40138487471054       -8.41018738891419        0.84286368321123
C            4.76689008582786       -7.08707932214775        0.99775584606803
C            4.53431097591830       -6.18469584354590       -0.01507079091299
C            5.96405769159977       -4.74461185194959       -2.32113234066060
C            6.84341430586751       -3.72721530896139       -2.60067226730056
C            8.19949912726280       -0.95506099067530       -2.38491394925157
C            6.36315498711910       -0.77670158493191       -5.67021752189865
C            5.41515959738077        0.45536203989481       -5.39946381293200
H            7.85883804694314        0.11374207594030        1.09597012091367
H            7.84599536514610       -2.19681328359913        1.94010604559875
H            5.99941231782339       -3.70275360751310        1.35680232657634
H            4.16588517128806       -2.90139370437383       -0.08303716737641
H            4.18681602334573       -0.59758706143564       -0.92423817372804
H            4.75692997482625        0.50864327055090       -2.72831933491238
H            7.17952905569110        2.49462824359908       -5.60287589141451
H            8.66033478454155        3.27174537827748       -3.81356187573219
H            8.43583243656115        2.34237282085407       -0.29514480183235
H            9.41439677207234        3.10435735249732       -1.51435620953695
H            9.61674522755608        0.32746410853658       -0.54594705538724
H           10.69606489261322        1.14527926999601       -1.63414579515323
H           10.24541152957939        1.06531630215808       -4.11896219069305
H            8.79511432724032        0.31717382116979       -5.94312301964326
H            4.65282170057261       -1.40912456630958       -3.67016285149670
H            3.08959265369538       -3.22146871899665       -3.17849477546616
H            1.24952564671827       -6.22480482745591       -1.32108492081220
H           -0.83629250142429       -6.40716803277598       -2.61304747578163
H           -0.81121734184231       -6.02873530509683       -5.04294540885230
H            1.29987039498173       -5.47876634986498       -6.17877266486556
H            3.38350026441301       -5.31162484349959       -4.88215043556662
H            3.10429982916297       -8.24291638148802       -2.26064264708679
H            3.51494721395362       -9.85804649002514       -0.45159309329459
H            4.58273230187855       -9.11638754124159        1.63648492293529
H            5.23233384185162       -6.76028473764254        1.91315854765783
H            4.80537051520498       -5.15164983589291        0.10266165181989
H            6.32526378433830       -5.68488438204980       -1.94374757468080
H            7.89813054541637       -3.86336956318628       -2.43391156915691
H            7.98915862740899       -1.27053751209433       -1.37924879576889
H            5.80427529105194       -1.71839697174881       -5.65019553267080
H            6.77000239024028       -0.72033022595850       -6.68661725399622
H            4.40328245663086        0.12126608236192       -5.14562822942446
H            5.28830165886517        1.04605616085241       -6.31411027463145
