58
 energy: -12.505987086375 gnorm: 0.000652751599 xtb: 6.5.0 (97a52f5)
O            1.00808703085277        1.15189661603594        1.47925631337797
C            2.06843976506080        0.89766218069110        0.94329271618050
C            2.39465679321986        1.44146042364885       -0.39894941073860
C            3.32818763448090        0.82509929940691       -1.22569663947257
C            3.61408926502345        1.34395187017141       -2.46945502598169
C            2.96943809257554        2.48277033278725       -2.90820063416097
C            2.03519704559392        3.09976778020988       -2.10089521099815
C            1.74887156139800        2.58141793356185       -0.85636945444481
C            3.07081547529247        0.02329301863853        1.61798903062511
C            4.32040435115627        0.48424925403397        1.76412770652009
C            5.45005974681155       -0.29507614160432        2.35059318738636
C            4.74441844421285       -2.25341676511087        2.96594076379993
N            5.25228368169193       -3.60025369934929        3.55634318291857
C            4.68428114930336       -4.81639400696349        3.06844561861709
C            3.42079157015958       -5.39103521067066        3.26623018466281
C            3.07875873540889       -6.51293995078182        2.55563215177215
C            3.96398953961679       -7.08816149673557        1.63663412080474
C            5.21157773000656       -6.55761930727122        1.43409513700656
C            5.58804844744892       -5.42868452218921        2.16993641954200
C            6.77536381187149       -4.59207092324786        2.14947069129110
C            6.67657308718634       -3.80709274804119        3.35293782988240
C            7.46359443147154       -2.59519830827787        3.12107408651260
C            7.48073773977098       -1.62449842434875        4.22358443179807
C            6.38641648692476       -0.95789894313909        4.58613281457117
C            5.15465750147855       -0.94314606178994        3.73389411741121
C            5.60582868731112       -1.70897680207024        1.74984548724869
C            7.02090269048936       -2.33574593483823        1.77645820871423
N            7.07232653105100       -3.61415570976453        1.12830650070597
C            6.66831637626201       -3.80965867030897       -0.24731519471064
C            7.61306000285067       -3.76561654936623       -1.26410975944001
C            7.23330787934918       -3.93224254936378       -2.57804026761900
C            5.90491810212691       -4.14070021272971       -2.89445368360345
C            4.95590145100999       -4.18080841910005       -1.89239643860709
C            5.33490281826230       -4.01621575106802       -0.57914697537019
C            3.27996175959639       -2.26801471826770        2.64191038191904
C            2.59183350652589       -1.28206081652269        2.06978918177125
H            3.82415244025921       -0.06736378259993       -0.88570265799606
H            4.34083805975726        0.85904869301731       -3.10054120730410
H            3.19362433320102        2.88835747078300       -3.88119604712619
H            1.52843985555433        3.98681760675343       -2.44404815638386
H            1.01846750865724        3.05251267844984       -0.22129300118215
H            4.53482010839705        1.47470999957761        1.40111710318773
H            6.40204998764486        0.26050148054179        2.34607639882190
H            2.74781407602796       -4.96724401394547        3.99035384155703
H            2.10941737195375       -6.95960702905233        2.70379656340875
H            3.65992944159013       -7.96090673611668        1.08261870656939
H            5.89707141748282       -6.98567997508503        0.72431890614787
H            8.37668669664056       -1.55472260029033        4.81864413923447
H            6.42129606172144       -0.29930216236180        5.43778129000329
H            4.29178086696728       -0.48118479180353        4.23772897294518
H            5.10194515434349       -1.82231298347165        0.78114676835873
H            8.64466918840978       -3.60008359319243       -1.00685823986366
H            7.97438890924230       -3.90087267312995       -3.36008011767714
H            5.60925566493164       -4.27170692102757       -3.92242326668939
H            3.91884719731722       -4.34240513468687       -2.13711406085464
H            4.60250762807239       -4.04976457143034        0.20766875497537
H            2.75037029207223       -3.16226885637335        2.90741039454392
H            1.53758881691797       -1.43948817082384        1.90848334542549
