63
 energy: -14.110096023682 gnorm: 0.000869431960 xtb: 6.5.0 (97a52f5)
O            3.30311936338827       -1.93840445363386        0.98951348929247
C            3.54009933229759       -0.82968008973855        0.54323945757134
C            3.43639481624462        0.36754575870111        1.40765648175937
C            2.57523839546874        0.39106016097971        2.48765978233786
C            2.49283536284175        1.52420649084449        3.25909983284238
N            3.19463116273019        2.62850824225585        3.05573220037053
C            4.02214274484344        2.59033007782203        2.02314676152866
C            4.18322117732054        1.51221411958762        1.18872530866337
C            3.95003664734492       -0.66769209459753       -0.87508463215796
C            4.92143517544478       -1.51194107573686       -1.38596630832838
C            5.37521032797418       -1.39103762943021       -2.68914976463255
N            6.40487151948557       -2.26267235452659       -3.18427748099676
C            6.41915128707565       -3.66908648972812       -3.09124708969993
C            5.49211952854079       -4.55887112459641       -2.54890534763400
C            5.76323343081619       -5.90397489057162       -2.59500249253329
C            6.94200401799968       -6.38212647391271       -3.17433048272658
C            7.86372773540978       -5.51988898216181       -3.71707181320012
C            7.60205412641898       -4.14951968296366       -3.67893356452040
C            8.34413699190099       -3.00395627966423       -4.14837217206904
C            9.57500773890700       -2.87973170825655       -4.79466261920346
C           10.03330468358500       -1.62192788014018       -5.10409692470246
C            9.28815836515628       -0.48478586025698       -4.77902537770951
C            8.07487243724154       -0.59104790274523       -4.14573606584996
C            7.59111337598435       -1.86074965919338       -3.83074926314076
C            4.82653057224293       -0.40353520360432       -3.50181130252633
C            3.84810185228039        0.42960379727618       -3.02066602134944
C            3.38673296182035        0.31419264580084       -1.71285108072911
N            2.34293457593836        1.18679624823609       -1.25138656645711
C            1.11474317355557        0.80396765919352       -0.67068117195710
C            0.56829372566464       -0.45728545245328       -0.43887445297759
C           -0.65925463586665       -0.54391967144258        0.16967311714080
C           -1.35808424232722        0.60535210455214        0.54857083488523
C           -0.83716805232312        1.85642710731007        0.32145678751473
C            0.40965024991766        1.95980289105979       -0.29588837611767
C            1.22000415072136        3.09571975561032       -0.66530774636917
C            1.03507789132617        4.47060916559882       -0.51724239960301
C            2.02160557477170        5.31924066279493       -0.95855828240345
C            3.18925904180415        4.82216104757909       -1.54358065626534
C            3.38486383076343        3.47179511153701       -1.69632497959779
C            2.39212979154202        2.59703357739372       -1.25749392214100
H            1.97458723250439       -0.47590149736860        2.70212960166257
H            1.81105311668819        1.53855358400164        4.09640237148197
H            4.60033557354073        3.48368680269373        1.84058008068959
H            4.87231572472168        1.55025137637884        0.36294584352107
H            5.34539668878577       -2.26594620011965       -0.74886021839046
H            4.58522573676407       -4.18425506716018       -2.10941358867813
H            5.05700612777241       -6.60289117034664       -2.17784125861996
H            7.12977867688881       -7.44296936060433       -3.19447404818522
H            8.77301937361085       -5.88037718414637       -4.16442369692126
H           10.14554928811410       -3.75889340415375       -5.03607716137855
H           10.98329028796371       -1.50859115885680       -5.59977885072544
H            9.67399569580377        0.49011488400726       -5.02782354235297
H            7.50187809874496        0.27979813008621       -3.88288496297099
H            5.16670429568881       -0.31784148336066       -4.51865451992641
H            3.40974734311459        1.17782165249668       -3.65738195623059
H            1.11906866141561       -1.33653782143316       -0.72158496498868
H           -1.08935767833026       -1.51299856738570        0.36245528061798
H           -2.31925274349314        0.50793550121986        1.02567369158936
H           -1.36876468929135        2.74599683027783        0.60964719239951
H            0.13659783454987        4.84495787445088       -0.05947157667571
H            1.89535445582841        6.38386832248668       -0.84978123417018
H            3.94881182608613        5.51013470818222       -1.87680244182021
H            4.28537886633713        3.08136158385091       -2.13506573622022
