95
 energy: -19.155020048331 gnorm: 0.000581346332 xtb: 6.5.0 (97a52f5)
C            2.06892331961526        0.18386787177796        1.15693599801741
C            3.46104709085743        0.55922247811898        0.61583225008541
C            4.18378463554769        1.46692658937540        1.62815055616445
C            4.28234737015444       -0.73376257259963        0.44758044974965
C            3.30055375915488        1.30967179546117       -0.71502699026297
C            3.84520950346122        0.85620178981631       -1.90535998540663
C            3.66343984661035        1.55398713852805       -3.08236762287715
C            2.92694464064757        2.72598688112050       -3.13989973873102
C            2.76932867122489        3.47306754922359       -4.47846800438875
C            3.83866116795582        4.57308835952143       -4.56762824961729
C            2.94737726496160        2.51432321591277       -5.67638816467743
C            1.37003927198956        4.10233017543923       -4.60890387786770
C            2.39630338628564        3.21177642675467       -1.93109965032214
N            1.64743490849064        4.43364337853941       -1.83572096393230
C            0.23816599884204        4.34639637029343       -1.75287198916490
O           -0.33027169881051        3.26812120734571       -1.77796711957618
C           -0.52676391973805        5.59601213242079       -1.65850872500265
C           -1.90053921662320        5.56226675305361       -1.63898665515283
C           -2.64014876105905        6.73601990840554       -1.57623418933643
C           -2.00830908375286        7.94499960737646       -1.53679301034476
C           -0.60279849090673        8.04808452417849       -1.55089838855546
C            0.08910283869663        9.30883781821559       -1.51100546696959
C           -0.61739164532562       10.57792313450218       -1.50497075156467
C           -0.06229215338003       11.83455334653668       -1.46501298998016
C           -0.99728093869728       12.89473606636764       -1.50221015661204
C           -2.30681999882244       12.49341011039170       -1.56840772983431
C           -3.48508481474574       13.34219833989487       -1.63906229498418
C           -4.76167860092420       12.77638799604274       -1.59206339455231
C           -5.88784861388594       13.55604133984152       -1.67532300196853
C           -5.78893088653905       14.94005127151748       -1.81588189272836
N           -6.96080160968820       15.75357634291658       -1.92111577657705
C           -8.16388529796003       15.38790823533905       -1.22769887451021
C           -9.41159125955746       15.58768344964012       -1.81390373992775
C          -10.56510139997859       15.24325183831819       -1.14625655370617
C          -10.49527690233609       14.69440315613415        0.11937265224756
C           -9.26585612970533       14.49166293967645        0.71549617209748
C           -8.11089357547092       14.83481008166765        0.04962802557246
C           -6.94603309517142       16.93753518636336       -2.73421516119253
C           -7.61204552042910       18.09033601871602       -2.32500758540262
C           -7.60362383855732       19.22213589816199       -3.10864145169965
C           -6.93223731049524       19.22384449185373       -4.31579457874798
C           -6.26829492003009       18.08810834597767       -4.73666242652065
C           -6.27435261776626       16.95541323297295       -3.95441581607786
C           -4.51632117948464       15.50968915849892       -1.86227492334234
C           -3.38932789831658       14.73075104099249       -1.77418722293571
S           -2.35524402843102       10.74763154382661       -1.56384942275486
C            1.47658885000558        9.29152296085832       -1.50249202266486
C            2.19491148331126        8.10988543884711       -1.54620650815981
C            1.56043115098367        6.88989934597478       -1.60606631017410
C            0.14574339653863        6.84355812359724       -1.60698975075353
C            2.34370672315000        5.65393614186509       -1.67368221989347
O            3.56138067353197        5.68229103453013       -1.60248539857520
C            2.58683592694405        2.49068670594335       -0.75577734824913
H            2.14993387642166       -0.36838634845373        2.09248154367451
H            1.53399685268716       -0.43983829316823        0.44165727167048
H            1.46486513824059        1.07021235454235        1.34451477260174
H            4.32746146306058        0.95387064179773        2.57836767513753
H            3.61473490622708        2.37465995044383        1.82269878327025
H            5.16288282485360        1.76020308923540        1.25120659337878
H            4.38157679762672       -1.25484881706571        1.39924059544994
H            5.28641476914842       -0.51618068099837        0.08542347044094
H            3.80101528693467       -1.41581674417430       -0.25232353683253
H            4.41909302288751       -0.05316217007196       -1.92030748253663
H            4.11417380061132        1.16640557583183       -3.97807285324524
H            4.83868113724491        4.14509998425428       -4.51164387403923
H            3.73501175620979        5.28121321782811       -3.74846044701824
H            3.75678387402382        5.12433801537989       -5.50358239675817
H            3.96988136388102        2.14720805948353       -5.74822249432029
H            2.72560462545665        3.02259564520717       -6.61421056027121
H            2.27621809582589        1.66020924952684       -5.59371975070013
H            1.23906823757620        4.91967107831766       -3.90436375665629
H            0.59403505521172        3.36158642032863       -4.42016459052368
H            1.21498384167119        4.51054369802978       -5.60702013476615
H           -2.39615588289867        4.60762262156976       -1.67866875083968
H           -3.71681997843726        6.68901741536036       -1.56334416538811
H           -2.60327076469190        8.84550248628489       -1.49062003516945
H            1.00045250149753       12.01038106726944       -1.41560840013261
H           -0.69976309533503       13.93132353058384       -1.48047810170088
H           -4.85028879957055       11.70881606012481       -1.49340531732105
H           -6.86390973236595       13.10439808439198       -1.65097403824494
H           -9.45961200303564       16.00941778097812       -2.80255442531823
H          -11.52401186177045       15.40136298104096       -1.61207611892587
H          -11.39881124330110       14.42575860940990        0.64175825547721
H           -9.21081132113173       14.06623118041612        1.70418217118452
H           -7.15116402501401       14.69052306452494        0.51403475333200
H           -8.12800688118317       18.08497356675455       -1.38089428431050
H           -8.12112530400034       20.10828996944108       -2.77948720043454
H           -6.92669080084225       20.11016148742643       -4.92886521555622
H           -5.74610445959303       18.08773335951906       -5.67942033016435
H           -5.76806035509765       16.06441728378033       -4.28209923376542
H           -4.43052384961229       16.57767492970139       -1.96001603318623
H           -2.41901976823162       15.19232417867764       -1.81873203118394
H            2.01476422217094       10.22155128397070       -1.46896029626811
H            3.27119748669154        8.12973878066730       -1.54145535383392
H            2.15472271754615        2.88347463569827        0.14621331614509
