67
 energy: -12.626688878958 gnorm: 0.000300169085 xtb: 6.5.0 (97a52f5)
O            2.05795640857615        0.69859355644741       -1.15987057501031
C            3.10335347318308        0.44663749487423       -0.57138778986606
C            3.50209035307502        1.20711429476099        0.62860154136913
S            4.97670878294282        2.12534308858428        0.68505922424864
C            4.69000256252328        2.67090187029277        2.31082435880868
C            5.57212648643300        3.54219517439866        3.04135035819741
C            5.31130162273352        4.14033886707624        4.24587842455458
C            6.35668811261694        4.96447246124358        4.71625922470526
C            7.44617893623951        5.00723187642039        3.88982239655201
C            8.64882602419623        5.76388158837725        4.11018846666619
C            9.78494845382319        5.67277688797895        3.35907279063673
C           10.84178860418428        6.53789860387983        3.76714271183579
C           12.13270200617764        6.59036713954884        3.08399342537358
C           12.39333043629322        6.06070604892469        1.85420747909060
C           13.73411674576798        6.24174768787665        1.41742652679233
C           14.50244848161720        6.90585661551814        2.30587120881014
S           13.58917012678742        7.32948933079507        3.70736785492221
C           10.48754101009313        7.31768160855691        4.85031204842555
C           11.31861822175997        8.35250099290957        5.50189834493984
O           12.15022935603457        8.04929178339575        6.34873377839707
N           11.14474632846954        9.68560770378105        5.10897148246647
C           10.38859326061686       10.04399360294906        3.89932695764950
C           11.37466993540870       10.38602890423216        2.78357093068638
O           12.29555479136403       11.39209512091113        3.19760732150559
C           13.03658312503772       11.02577074130767        4.35919638803634
C           12.11471019469110       10.69314957901583        5.53264659748170
S            8.87296228073316        6.94130724848950        5.37052973402139
S            7.16360643751299        3.99953911447794        2.49659308368086
C            3.51274859170443        2.14708818012606        2.76336965454325
C            2.82689513124411        1.31577276191299        1.83041559295136
C            1.58596238913092        0.63423698578058        2.19036528842226
C            0.72854504318436       -0.02500219176319        1.36122588035756
C           -0.39221505046960       -0.59779628307272        2.02140638171139
C           -0.39879281073734       -0.37767936512965        3.35340380556262
S            0.98047677242433        0.54896424630309        3.82546986674958
N            3.94216100949861       -0.57971395992511       -1.02567219704505
C            3.48752545895361       -1.44674916079817       -2.11027149406240
C            3.04058346842913       -2.78636421881865       -1.52665746273654
O            4.06219285067886       -3.37072360237643       -0.72278926355297
C            4.48107490055978       -2.52636801139867        0.34657051078667
C            4.97872062747522       -1.17670192389733       -0.16883619094307
H            4.38303767971067        4.00786155183037        4.77927882024861
H            6.30908713673225        5.51331900924430        5.64397992547386
H            9.87119335593144        4.99178049255832        2.52890092739515
H           11.64807284148506        5.55595571559131        1.25965240237413
H           14.09889229742350        5.88077701204207        0.46663842741600
H           15.54002291646070        7.14904375926100        2.17496492885022
H            9.75901879985066       10.90869875050396        4.12982243614119
H            9.71801373309988        9.22612302454113        3.61655767808480
H           10.86494803517554       10.75330053707885        1.88351359882473
H           11.95579391488138        9.50373324723816        2.49199307424893
H           13.71301324689230       11.85770730472286        4.59393701161214
H           13.65960633798171       10.16322098715615        4.09641904522410
H           11.57371788315038       11.58425385974340        5.86567288903108
H           12.67218591165137       10.30551061224032        6.39293316134004
H            3.12930282993908        2.33173433060205        3.75303043891505
H            0.88152264947014       -0.08463366299876        0.29693204294233
H           -1.16237231003567       -1.15186890704100        1.50448517121594
H           -1.14985976475669       -0.72110577133889        4.03964105628379
H            4.31139089587880       -1.58707502659635       -2.81688264009105
H            2.67557237680871       -0.94333412272419       -2.64747398630897
H            2.78415596767784       -3.50945267311122       -2.31170552873210
H            2.15313221948496       -2.66029956499862       -0.89581618244311
H            5.25941421336613       -3.06311417945701        0.90422919820753
H            3.62708486809646       -2.39609019375716        1.02127872169912
H            5.88741165864771       -1.30532894184276       -0.76462770872696
H            5.22681936397831       -0.49661959435714        0.65195042309745
