76
 energy: -14.130630734733 gnorm: 0.000483809785 xtb: 6.5.0 (97a52f5)
O            0.01062978006101       -1.74760891430981        0.07111567337785
C            0.00135779046023       -0.52893106267313        0.13539255965976
C           -1.19734373893092        0.30895991370106        0.22360992187940
C           -2.45268021475095       -0.18065882365049        0.25973557462544
C           -3.62706383359002        0.62646855509664        0.32935171133424
C           -4.87134798390510        0.11337933488201        0.41471624564752
C           -6.09478413748331        0.88129640439752        0.46511150236018
C           -7.31294622013612        0.23121629492739        0.68937457216685
C           -8.50577850780053        0.91662088866027        0.74179306018862
C           -8.51614839452441        2.31532736424210        0.55479348906368
C           -7.29562260428187        2.98445869318228        0.32220831682170
C           -6.12003526160169        2.26847311108565        0.28535779726134
C           -7.26851636503810        4.47153002542664        0.10962067387770
C           -8.60226830595165        5.01737179803299       -0.42015952268113
C           -9.77497523218491        4.49169503543916        0.40617292675008
N           -9.71804913188782        3.02672306044102        0.59442837232548
C          -11.01994149591035        2.36263959684574        0.81483367536061
C          -10.88061926832292        1.05885804552449        1.59904053710192
C           -9.78430593287272        0.16924722946043        0.99530054633483
C           -0.78776624343574        1.75299535371245        0.27304642013192
C            0.75413195275104        1.76692910718433        0.24127814714485
C            1.18661218930408        0.33234895286283        0.13988959525544
C            2.45004059192532       -0.13222584835523        0.07045908998736
C            3.61195175389505        0.69503166362109        0.10239249448477
C            4.86628338527342        0.20850191741146        0.00858839699134
C            6.07896604997409        0.99252333173229        0.06568088083129
C            7.31648317563900        0.36918636248374       -0.12616346377141
C            8.50129564387483        1.06808117872148       -0.06972514683310
C            8.48238650470484        2.45350655272172        0.19816782237383
C            7.24144749208427        3.09654747980672        0.39294676563051
C            6.07527804680941        2.36777602757913        0.32239767035390
C            7.18289884077285        4.56977022366830        0.68120706802308
C            8.47149563539660        5.09572001423875        1.32930097405912
C            9.70271760877287        4.62845523982548        0.55448983888578
N            9.67525865987843        3.17677031101712        0.27665453977427
C           10.99620987578645        2.53566437490255        0.10928977902259
C           10.92519483090760        1.28235325940453       -0.76146567193028
C            9.80184931229971        0.34810338127686       -0.28895297437777
H           -2.57546676289773       -1.24879718943962        0.23073111239844
H           -3.49734690726649        1.69267307084039        0.31923036830338
H           -4.97033228184343       -0.95737135923970        0.45356849970036
H           -7.31639651142696       -0.83545956035920        0.82736359479660
H           -5.20348028928233        2.79743703536522        0.10102852863647
H           -6.45095041429869        4.72441727167810       -0.57774570253437
H           -7.01824444052513        4.95839125267114        1.05975638715382
H           -8.73070766478619        4.71536096247888       -1.46688276257523
H           -8.59651629130783        6.11643518260892       -0.42704246730366
H          -10.73136087266074        4.74571433892196       -0.06434367383890
H           -9.78335258833677        4.95676917305628        1.39703970703667
H          -11.46897070116649        2.17286055603504       -0.16522891461932
H          -11.68591630402876        3.06266257322047        1.33163654727475
H          -11.84012846106368        0.52381749421045        1.63248392339204
H          -10.63248061393194        1.28716519417566        2.64286961954024
H          -10.13362031098782       -0.26103056137601        0.04919844900052
H           -9.57960071195079       -0.68576409923528        1.65237960603784
H           -1.18001899332771        2.22581992060622        1.18124374081571
H           -1.21566211941184        2.29341308558741       -0.57962215060659
H            1.17384926189192        2.22172092764960        1.14634541532479
H            1.13830035187224        2.33851078440697       -0.61186389567798
H            2.58998890306283       -1.19597489006318       -0.00521843913524
H            3.46398104569623        1.75362405317922        0.20825031391777
H            4.98345280618180       -0.85380250518494       -0.11670063565444
H            7.34238073986703       -0.68794569768383       -0.32279156402475
H            5.14277097674593        2.87728366341436        0.47908352781209
H            6.31743808581610        4.77998375695363        1.32264677452266
H            6.99336027446493        5.10452657972913       -0.25707808076789
H            8.53373511109159        4.73472956770024        2.36329518745883
H            8.45162009494700        6.19246137767304        1.39857758709619
H           10.62247319019057        4.86107429190821        1.10267635822877
H            9.77224186630365        5.15179467381656       -0.40434502520688
H           11.37658063557359        2.28775105524480        1.10527769801247
H           11.69017892838664        3.27011350689900       -0.31449283272049
H           11.89119733687179        0.75808245667213       -0.76327643718924
H           10.74437723688757        1.57377838674243       -1.80340934724603
H           10.09469244158681       -0.14157318502039        0.64738307413926
H            9.64860770509698       -0.46304858027237       -1.01234395099763
