58
 energy: -12.200360620390 gnorm: 0.000432185265 xtb: 6.5.0 (97a52f5)
O            0.65587502696413        0.57056109373879        0.08645185143181
C            1.83827658559502        0.27911270501337        0.07168378910532
C            2.93632837668310        1.23393709446131        0.06134294803000
C            2.82337993682726        2.58002704499328        0.05553434880500
S            1.30202569406193        3.43649729386141        0.03913256981728
C            2.03275001645535        5.03063789227560        0.00695709575764
C            1.42364708024858        6.27160154906310       -0.03423413196897
C            2.21146987792210        7.40356231652429       -0.05306780938455
C            3.59061223237965        7.29937062778670       -0.02814382936181
S            4.61271630081372        8.77486297028796       -0.05698012071131
O            5.86362644340258        8.48171211055773        0.71532025289232
O            4.73934425433385        9.18002107155870       -1.49446287052922
N            3.61114115197202        9.76026196739472        0.92054140533687
C            3.01115109220579       10.93535518374364        0.47527001742028
C            3.00326728538500       11.32530982144882       -0.86756983204979
C            2.39059136737517       12.48841766808604       -1.26713387202020
C            1.76543262902998       13.29600427753308       -0.33895545481696
C            1.75596439563134       12.93206102087682        0.99252859880248
C            2.36844586715162       11.76904939179592        1.39675487036219
C            4.20368840564409        6.07212901373711        0.01359171767236
C            3.42138037584716        4.92388844390237        0.02812276144096
C            3.92253405903891        3.53357414250789        0.05901165763544
O            5.10454987601945        3.24127048246138        0.08419703921708
S            4.45876947325038        0.37951396091464        0.05282181993341
C            3.73025549600929       -1.21554716122553        0.03687184615227
C            4.34193371443451       -2.45548801733030        0.00863327441325
C            3.55630351544660       -3.58893816637711        0.00460626550344
C            2.17701433955575       -3.48745003065855        0.03117977775517
S            1.15862242121577       -4.96569507802106        0.02299836604775
O           -0.07298646321244       -4.67847004851723        0.82774107080843
O            0.99551610662108       -5.36812965515223       -1.41153564326505
N            2.18607267921098       -5.95591174294824        0.96872293038697
C            2.83198842159945       -7.09122077630914        0.48684620227564
C            2.85540262651090       -7.43547168072934       -0.86814714027030
C            3.51534752477769       -8.55849352106955       -1.30542244380175
C            4.17279868597324       -9.37053509903786       -0.40378027992731
C            4.16662927101761       -9.05156225959951        0.93920645994518
C            3.50737707224471       -7.92852092007753        1.38110715310503
C            1.56143057576035       -2.26096652414079        0.05900627823769
C            2.34144051832188       -1.11094649349362        0.05853314079849
H            0.34933464659072        6.33887031517329       -0.05099353299448
H            1.75981978779465        8.38093256901494       -0.07992626817991
H            3.97383014317301        9.74838320285036        1.85372953916611
H            3.50357523560850       10.70556220748205       -1.58829142763894
H            2.40188938728001       12.77347907310779       -2.30670834034696
H            1.28661813822885       14.20927556012612       -0.65291159348627
H            1.26592783707539       13.56177534252694        1.71737871017252
H            2.35262660614468       11.48133084652087        2.43322800112800
H            5.27731716232787        5.99256500312887        0.03929977909286
H            5.41635834961533       -2.52075563295334       -0.00885898912452
H            4.00997275969498       -4.56548220299801       -0.01115272525260
H            1.83342820984850       -5.97984105562431        1.90577573303364
H            2.32727570961774       -6.81468482069291       -1.56791553199997
H            3.51580760005618       -8.80896273564561       -2.35392499627765
H            4.68826248749238      -10.25271172748247       -0.74724542403661
H            4.68132939397016       -9.68500374127074        1.64342270494395
H            3.51092479719805       -7.67557693405047        2.42670311447511
H            0.48769743856277       -2.18322723905059        0.08521916634804
