28
 energy: -6.038448706071 gnorm: 0.000487518459 xtb: 6.5.0 (97a52f5)
O            1.00121269779975        0.21048040737970       -0.02910828140475
C            2.21824857475363        0.15064417388470       -0.02990347400297
C            3.11488673489543        1.29891897185191       -0.02982104516791
C            2.74768415010346        2.59905219198497       -0.02970184737385
S            1.09015243347348        3.14729251342597       -0.02940315674703
C            1.50171529780381        4.85184258030559       -0.02938396222223
C            0.66299886791423        5.95048253098910       -0.02910956119761
C            1.21173197022817        7.21488566729730       -0.02910485654405
C            2.58866961962047        7.38538332247831       -0.02936986451571
C            3.42899270601542        6.29414924274631       -0.02962638199028
C            2.88415565239005        5.01672741294074       -0.02962802328516
C            3.64424243782649        3.74738690945941       -0.02982272934648
O            4.86128995397325        3.68764399453425       -0.03013338426898
S            4.77238339533651        0.75054179147824       -0.02994855558138
C            4.36069374501527       -0.95400396319619       -0.03013640551852
C            5.19927615740047       -2.05275197876643       -0.02971294291727
C            4.65039995121017       -3.31709970390704       -0.02998526391874
C            3.27344091313066       -3.48744020882246       -0.03067417282483
C            2.43325404644159       -2.39610320340166       -0.03102171257359
C            2.97824342340268       -1.11874373235168       -0.03073190840318
H           -0.40341936687129        5.80512728689683       -0.02888512810839
H            0.56615885796464        8.07763656655983       -0.02888772426179
H            3.00405168855511        8.37966802876639       -0.02936454093560
H            4.49894787449945        6.40984444595486       -0.02983458341733
H            6.26571395697904       -1.90753645486647       -0.02915731034662
H            5.29586951611948       -4.17992765495606       -0.02964008471116
H            2.85793236665785       -4.48167282703382       -0.03085549553225
H            1.36328237736071       -2.51164831163261       -0.03129760288234
