75
 energy: -14.870405636669 gnorm: 0.000468848265 xtb: 6.5.0 (97a52f5)
C           -0.01072901619089       -0.66841280300646        0.64346122522573
C            1.43682354670140       -0.15673902461549        0.76671623034855
C            1.92296129813143        0.36357652266434       -0.59875680968495
C            1.45443560568738        1.01414610790351        1.76901300790627
C            2.34738786407561       -1.30742557710344        1.22173739774344
C            2.44530094031823       -2.45835580891281        0.45866833246879
C            3.26839295451653       -3.49896243677688        0.83723157480984
C            4.04328636794908       -3.44461775676278        1.98371247285463
C            4.93241439604096       -4.64176420661447        2.37064073453436
C            4.15524137264807       -5.54713044320878        3.33981300703629
C            5.32493126947736       -5.46829124753042        1.12587999274625
C            6.24234508266980       -4.17713753357782        3.03478534978409
C            3.92884687093537       -2.29280677072462        2.78264617774984
N            4.63416705111250       -2.12400577613176        4.02178972081333
C            5.78019201798201       -1.29686339226252        4.03021423206292
O            6.18267868437588       -0.77016818160882        3.00859802075788
C            6.48835854021944       -1.10678317427964        5.30229828318141
C            7.64239853806636       -0.36441753524429        5.34243858592909
C            8.33532951005752       -0.19113810456033        6.53415753112883
C            7.87841547231324       -0.76420243331325        7.68399393221306
C            6.70091962039608       -1.53910874206968        7.70891571103669
C            6.19799196888741       -2.15880552932765        8.90515637460201
C            6.90080928205389       -2.06521904706621       10.17356834993457
C            6.52566184034815       -2.61531812274225       11.37473586683615
C            7.42350451371566       -2.37359429442101       12.44039875764747
C            8.52096469515334       -1.62823867515789       12.09856927442005
C            9.62108203823244       -1.22542717160402       12.96195392637814
C           10.65077795703370       -0.42992029454980       12.45712162019379
C           11.70145826236939       -0.04110002917956       13.25356695267983
C           11.75628901006881       -0.43615631144285       14.57683459754151
N           12.87894071382205       -0.02624222819477       15.42308091707823
O           13.74564205276723        0.72109470519316       14.94127103399806
O           12.92502517827042       -0.44035584725543       16.59275492433049
C           10.74502056736780       -1.22468601540145       15.09336054735567
C            9.69093937562924       -1.61583789313837       14.30128971717756
S            8.40813900216977       -1.21771122960192       10.40579424510740
C            5.01633641919269       -2.87782514927685        8.82038228531870
C            4.33083568150088       -3.02283431057971        7.62612333984490
C            4.79888384817173       -2.45929950050648        6.46312843847229
C            5.99474008791045       -1.70309590725482        6.49031033567812
C            4.07012346606448       -2.65001700022523        5.20620929863438
O            3.01333238940307       -3.25625595789970        5.18436896515152
C            3.09761176982633       -1.25107447933147        2.37994382998590
H           -0.68355806230457        0.13463370444967        0.34561965023096
H           -0.35998463955914       -1.06592131709133        1.59545744568748
H           -0.08979616867869       -1.46027151492266       -0.09930474158199
H            1.30763928749660        1.19451300321240       -0.94108865977528
H            1.88106319233720       -0.41662338556775       -1.35687000332821
H            2.95328887250675        0.71063618103431       -0.53258114285154
H            0.80335375159216        1.82002037921760        1.43249005285355
H            2.45766606846181        1.42475990964899        1.87494073195111
H            1.10408053853958        0.69528171012732        2.74979889639909
H            1.87132186299514       -2.54132797378499       -0.44765573708595
H            3.29902278643375       -4.37578969580085        0.21634424418550
H            3.24165389061789       -5.91527579790181        2.87537732903852
H            3.87251044455045       -5.00102690101904        4.23718678766256
H            4.75414231573646       -6.40584237308151        3.63979824174369
H            4.46330249430798       -5.96849239756168        0.68746965522706
H            6.04307736878360       -6.24420086068789        1.38810292087447
H            5.78171855327946       -4.83400376417556        0.36735075996373
H            6.05567466156183       -3.75059651365753        4.01700662317866
H            6.73872386408959       -3.42359688307495        2.42472359166079
H            6.92980331141666       -5.01073055278335        3.17206809192317
H            8.00425135949664        0.07988919665455        4.43113512189490
H            9.23808455388466        0.39741589212948        6.54588901595163
H            8.43423227573341       -0.61572412327514        8.59987067272339
H            5.62523629327285       -3.19434128811942       11.50471039303200
H            7.25500569251506       -2.75174305867503       13.43630558473160
H           10.61140493016232       -0.12242886738496       11.42698223098882
H           12.49377678089265        0.57245104531019       12.86049519944288
H           10.79930671553897       -1.52724585905753       16.12501291022840
H            8.91332122607313       -2.23201916017822       14.71596541265531
H            4.61950120639645       -3.34500080069594        9.70351749431572
H            3.41742568426526       -3.59144228273498        7.58940867811594
H            3.05671078007243       -0.38381704387982        3.01164423892756
