33
 energy: -6.803060253796 gnorm: 0.000760554664 xtb: 6.5.0 (97a52f5)
O            2.85905195452488       -1.24672268254431       -3.96729153448428
C            3.39670894609291       -0.79553942275453       -2.97816749543366
C            3.27843579558979       -0.98580432705399       -1.53828187804828
Cl           2.21625524808175       -1.91179402916832       -0.49467564040115
C            4.26439174186989       -0.07939855014716       -1.26159882795304
N            4.70681076925831        0.43977949364044       -0.04506776167655
C            5.69192871984853        1.39561697820306        0.21031221174242
C            6.52227026840680        1.83617917763278       -0.81765678390393
C            7.47947700413260        2.79557215737935       -0.60169014839702
C            7.63538842315375        3.34305874502919        0.65790586681278
C            6.83856814789165        2.91785426157286        1.69397351652049
C            5.86023102197587        1.94047599123452        1.50863384507354
C            5.05356966540476        1.51423980847919        2.63408187072109
N            4.17761761380268        0.55144911669168        2.59505142525994
C            3.55037146900206        0.35518629727119        3.80890704583004
C            2.56546637740513       -0.60878638228746        4.06704083314905
C            2.02213570695977       -0.69727996916085        5.32343775217392
C            2.43725022484858        0.15861359456559        6.34191681001024
C            3.40177488583923        1.10966980328648        6.10716234296003
C            3.95920528042530        1.20726143972153        4.84147153040992
S            5.17984489788988        2.27669036975128        4.22821974078694
C            4.48066429167755        0.22026983714281       -2.71864662526068
Cl           6.06313426324844       -0.27273811531833       -3.33119358057663
Cl           4.02203766982704        1.86199285224339       -3.17867196204247
H            4.17994308374066        0.12453450840182        0.76275530479622
H            6.41833241746864        1.38895776410874       -1.78965799038142
H            8.11048942903161        3.12092832913647       -1.41281586198084
H            8.38522120185296        4.09833572572846        0.82796440796217
H            6.96768989608679        3.33994793950388        2.67510867707680
H            2.25167202407530       -1.26294646250772        3.27289226759063
H            1.26445413963222       -1.43647110961588        5.52604313911299
H            1.99742985421164        0.07360960728703        7.32209620756195
H            3.73047756593513        1.77639725173370        6.88561129574488
