53
 energy: -9.416401510976 gnorm: 0.000571718351 xtb: 6.5.0 (97a52f5)
O            4.23625782402786        2.28955940160766       -2.60626576413610
C            4.68447508168782        1.93158708403182       -1.52280795951237
C            4.82492472749833        2.83370848900338       -0.39018260776965
C            5.34118309808034        2.33997243845944        0.81021263790574
O            5.49724204321627        3.13372460720435        1.89601109373718
B            5.13719328755270        4.55234849319605        1.94732623529091
F            4.15441730465525        4.74083923516195        2.90012531627599
F            6.26259745086322        5.29690392041899        2.24530344732918
N            4.58743252899607        5.04244701916538        0.59793021898011
C            4.45407392789809        4.22669554587242       -0.47166952369393
C            3.94664515495167        4.78161484165817       -1.66487918030021
C            3.59747617409144        6.08742327091014       -1.75282943613305
C            3.73340851563341        6.93235455578931       -0.63428002572591
C            3.38212476423812        8.29637679030613       -0.67327849086484
C            3.52706974341240        9.08132355588840        0.43149969464191
C            4.02646434687361        8.53878022878335        1.61756687032414
C            4.37321884673116        7.22264386230537        1.67964692697187
C            4.24043138875187        6.38065056099135        0.56175463424977
C            5.73548538648594        0.95617708709132        0.94621188587546
C            6.26783211823260        0.55159090938828        2.17539228114910
C            6.70056500508280       -0.68802564002770        2.60544710990247
C            6.62882059372271       -1.88043460704848        1.96542808038128
C            6.04360957992416       -2.16238103452927        0.84422170462216
C            6.07522668184504       -3.44868944258705        0.30954440837354
N            5.01848781109840       -4.28119437227393        0.83693272285062
C            5.35241683526475       -5.53486999861657        0.96446986071482
C            5.57900804122917       -6.18044832950746       -0.28385157337001
O            5.89620110800681       -7.47015882090562       -0.17440429536979
C            7.56392311005606      -10.01681084825380       -2.29727229594615
C            6.65695268225954       -9.74348812976372       -3.16158569506436
C            5.34039902241819       -1.63160006201172       -2.39049383237178
C            4.98784483361788       -0.33474776149457       -2.42606376216320
C            5.10235077270576        0.53144189511949       -1.35546277089473
C            5.59854058132955        0.13065510983221       -0.14256979892904
H            3.83819641216738        4.14695138839612       -2.52406827029588
H            3.21334695732892        6.49163439117452       -2.67330089497023
H            2.99687799195464        8.71091499069298       -1.58875505238207
H            3.25603853226987       10.12341238152211        0.39298681909404
H            4.13634588370093        9.16642035479567        2.48666866164485
H            4.75699890888690        6.80361944256082        2.59253252159395
H            6.35996528996073        1.35584480567619        2.88944535416144
H            7.14621108723181       -0.72688766305967        3.58785382144330
H            7.05939635229494       -3.86555441424517        0.45307967619288
H            5.40800142051450       -6.54795670283789        2.37258099662571
H            4.60827055231129       -3.91539411537160        1.70839487458751
H            9.43736373757200       -6.90086716300967        6.72630313046215
H            6.27578869246011       -5.60297488758220       -0.87750315046614
H            5.54626587949038      -14.28590310701491       -3.82167265496033
H            8.72545838345949       -5.77359210117389       -4.42304341340931
H            1.64775972983909       -8.26029304433001        0.80913908086216
H            6.65219637271075      -10.14529258290928       -4.13173894638759
H            5.25291001487000       -2.28954162048570       -3.20512232070355
H            4.58778740135381        0.07351977399472       -3.34001837029987
