30
 energy: -6.414516573827 gnorm: 0.000736322646 xtb: 6.5.0 (97a52f5)
O            0.54459618848487       -2.84364574732251       -0.06501498881908
C            0.69218878475083       -1.63618523063067        0.05718139735689
C            1.98859648116287       -1.06664627101591        0.28949096007032
C            2.18854127507281        0.27272452458797        0.42779757736528
N            3.42092302451088        0.84568983217770        0.66969690267586
C            4.72280369701235        0.28937480391662        0.64629295238653
C            5.06982321429861       -0.72193310227395       -0.24489823406516
C            6.34541634909002       -1.24440935988393       -0.26303254214256
F            6.66603720186320       -2.22902123888073       -1.13419924244878
C            7.29481353513706       -0.75304366292326        0.61375014734447
C            6.98009674720611        0.26461917121237        1.49499430350223
F            7.91942238930635        0.74936724706622        2.34089486442728
C            5.70277284326230        0.78285333910118        1.50320027467162
C            1.05522907428916        1.20243260204973        0.38290405639188
O            1.24565079742105        2.38982543342276        0.55317690966131
C           -0.28554220390099        0.65576057431144        0.13462470575108
C           -1.38638543583055        1.49612677216390        0.06518609293622
C           -2.64333905362529        0.98524852562674       -0.16027166273845
C           -2.81862561958196       -0.37680746822627       -0.31988455709227
C           -1.73650469831597       -1.22349580381631       -0.25276924839740
C           -0.46279491254642       -0.72462507262548       -0.02589566934874
H            2.81077111958210       -1.74711965349680        0.39690446630938
H            3.35846752488006        1.84196670624514        0.88548113811495
H            4.36010553512556       -1.07041249868120       -0.97148492583901
H            8.28912027562297       -1.15982241131496        0.60396738678149
H            5.46415055004916        1.56594324225000        2.19860390158024
H           -1.23424243139727        2.55524534410600        0.19350393608908
H           -3.49280103865010        1.64721418997965       -0.21128593265630
H           -3.80488369780120       -0.77578019285371       -0.49556570993948
H           -1.85861751647658       -2.28740459427221       -0.37205925992805
