30
 energy: -5.954091398980 gnorm: 0.000499094978 xtb: 6.5.0 (97a52f5)
O            0.66245038812507       -2.89868823197382        0.29951632164633
C            0.82594384891647       -1.70493791071900        0.09184806733896
C            2.13729003011532       -1.15829744286071       -0.10675666237477
C            2.35271903245398        0.16415276005917       -0.34595173939336
N            3.60736225066735        0.71124721406213       -0.51903426130273
C            4.82426504090356        0.09363735421267       -0.58776855270250
C            5.12117782155477       -1.07302289325798       -1.19675859090712
C            6.34931510095731       -1.70950126707594       -1.16601226185694
F            6.53220221984838       -2.74448110974840       -2.02389311656558
C            7.41401587046694       -1.37094092404775       -0.33929723371823
C            7.35904081385261       -0.55668756917387        0.72030543562876
C            6.24162477988321       -0.31221209578652        1.38695338928884
F            4.40264510297222        4.90243510213879        8.10833685724795
C            1.23102333839187        1.10746677350025       -0.38865661655570
O            1.44545637548723        2.28740870761592       -0.58117941827155
C           -0.12679213311543        0.58214022866693       -0.19177261547418
C           -1.22206868546241        1.43175852809903       -0.23042440283303
C           -2.49380334864834        0.94288951228961       -0.04295634499915
C           -2.68955718404482       -0.40618331217623        0.18708072431187
C           -1.61316338564265       -1.26159581527637        0.22826752048090
C           -0.32464186118040       -0.78531035716739        0.04064471344095
H            2.96967909623115       -1.83033645712881       -0.02796321731694
H            3.60896255531008        1.73060060515563       -0.55835944102045
H            4.37839572736924       -1.50211833197748       -1.84552913321337
H            8.34972643661366       -1.86634740097225       -0.53995637362461
H            4.97029896705916        4.23088363356222        8.57281493305993
H           -1.05365400777671        2.48070995755482       -0.41018738969392
H           -3.33851970895084        1.61186300034897       -0.07487115197581
H           -3.68697115089107       -0.78795768517942        0.33496561181038
H           -1.75104333152493       -2.31482457308125        0.40834494894686
