30
 energy: -5.788991591575 gnorm: 0.000735584983 xtb: 6.5.0 (97a52f5)
O            0.53392295629251       -2.73159814692257       -0.26644458851271
C            0.60307011359591       -1.52422662295509       -0.08680757853100
C            1.86606861471939       -0.87451477248483        0.11511141386871
C            1.97677385671681        0.46549935999908        0.32747432109723
N            3.17939481366384        1.11008570571809        0.53915120018165
C            4.51274248924442        0.64856553954506        0.37710477391867
C            4.79008587588809       -0.23565021314346       -0.67091071735709
C            5.93052889803060       -0.90055585594739       -0.85989206156534
C            6.74920753374457       -1.23192517115910        0.12523687594376
F           13.66689831996668       -5.51024427708145        2.03434492812576
C            6.79569928226072        0.98211272034271        1.15226330082892
F            7.69022903755874        1.51403930608591        1.95339222389445
C            5.47549390207375        1.17060046369620        1.24378149336683
C            0.78036385117749        1.31056611968114        0.39466748572953
O            0.89556180028109        2.49509500949532        0.63712423088596
C           -0.52804486779158        0.68391033044423        0.16325774061457
C           -1.68605455553328        1.44674012360325        0.17453646448005
C           -2.91173904093039        0.86109790542432       -0.04078225660938
C           -2.99818755966518       -0.49963547374421       -0.26957845150853
C           -1.85855802068778       -1.26981319827922       -0.28312732520884
C           -0.61503551763255       -0.69482549355678       -0.07008927574090
H            2.74163714776082       -1.49436322362108        0.13383682127090
H            3.06259663760805        2.08330779896733        0.82525471085998
H            4.01087488791144       -0.38399358402250       -1.40056792926152
H            8.08129075004118       -1.84679270743022        1.04559909290520
H            5.13181284510300        1.81496690751075        2.03319635668354
H           -1.60312256000254        2.50588576979539        0.35493088420432
H           -3.80592310021413        1.46324499334467       -0.03092995451504
H           -3.95986415439250       -0.95755398911508       -0.43711001823147
H           -1.91101423650577       -2.33149532218965       -0.45928416125522
