30
 energy: -3.232726826993 gnorm: 0.002924603768 xtb: 6.5.0 (97a52f5)
O            0.64462094320970       -1.52241762969426        1.80744740743127
C            1.12642718506449       -0.70464590488519        1.07929656614003
C            2.38615168241101       -0.58461420324543        0.58040122886566
C            2.78442396499854        0.38908768324360       -0.18232534255869
N            3.97738052643228        0.58447039318922       -0.69356994045742
C            5.06480816782214       -0.16840781516080       -0.56480199833914
C            5.20062172044352       -1.29491881053620        0.11239086910856
C            6.30838476849724       -1.97728971061785        0.19919737438823
C            7.41200612629817       -1.58915692926339       -0.42144101560996
F           15.46825437326637       -4.24585639831127        3.91356913871950
C            7.15580122360824        0.76263833308859        1.96784231215913
C            6.29182080313043        0.17452969469748        2.73602019044285
C           -1.25570151534988        6.83026647647852       -4.83188561580170
O            0.44964823408438        7.90346891064424        2.33064509859204
C           -0.38037879518423        0.11874478444238       -1.60424578885198
C           -5.15969026312212       -2.27236858374854        0.83435534084073
C           -5.04477901785610       -1.60024106271768       -0.25529951911567
C           -3.95864843541045       -1.06048950005995       -0.77292978141606
C           -2.68700983812197       -1.05739359490877       -0.31140622139480
C           -2.30193430900907       -1.64670353550622        0.82085078563224
H            7.71676889336299       -5.77772119264465        2.26077048211814
H            5.25020790880123        2.16098557945997       -1.98899761576844
H           -0.09915788711697       -0.74325638188534       -3.16682885958028
H            9.09721997301197       -1.42966534128419       -1.04275548963639
H            6.62127808700814       -1.38034077622781        3.50863529902928
H            5.02700325229287        1.00200111849715        3.63785770483561
H           -0.00003000964619        1.88555723735691       -1.69875622919506
H           -7.32372913960026        7.32887557400484        0.45817151184842
H           -1.94616817964905       -0.54133702904650       -0.90608318731384
H           -1.30822043527867       -1.64392139790018        1.16999528049980
