30
 energy: -5.172273415729 gnorm: 0.000783829412 xtb: 6.5.0 (97a52f5)
O           -0.06802510996452       -2.83538316309458       -1.13236908970257
C            0.29763177054949       -1.73453098045075       -0.74564100334287
C            1.68773743523574       -1.38157198481255       -0.71739074982004
C            2.13176338770964       -0.16825002431236       -0.28836562077291
N            3.46729019683019        0.17564567079567       -0.24843343566774
C            4.56369329989583       -0.50734870719187       -0.69205501027777
C            4.67579232825601       -1.27718349833828       -1.79385383568780
C            5.78787778421616       -1.95264158694304       -2.07000620676859
C            6.82733468172782       -1.93794954429599       -1.25183877000684
F           12.23075502200916       -1.56648524693146        3.55730978836249
C            5.39787247980098        2.01821525504544        2.04707784999376
C            4.78700918729415        2.23028178525288        0.92093005414714
F            4.11999754904011        5.22692452602077        7.43877883869658
C            1.18370852040787        0.83752463756780        0.20197890424228
O            1.59193098414558        1.90209063241683        0.61922166382728
C           -0.25015302411598        0.51666376585388        0.17208431112299
C           -1.18716595515636        1.44370624439636        0.60301513425548
C           -2.52960175768882        1.14590312165414        0.57684779582309
C           -2.95637200216760       -0.08633655717621        0.11785498572141
C           -2.03903042141453       -1.01679711153422       -0.31217650457540
C           -0.68215124236825       -0.73247880057210       -0.29172176023080
H            2.39077942980925       -2.13180989319902       -1.02278068125889
H            3.66639925808398        1.06101207466651        0.21673597669898
H            3.87046257340097       -1.28994856684852       -2.50876407596607
H            8.18369805860442       -1.68918984927722       -0.20767993310331
H            9.81116459904483       -0.01763955613731        4.65846619353980
H           -0.83918333944282        2.39952038372149        0.95871819309509
H           -3.24965327976451        1.87354216457790        0.91498818562538
H           -4.00912474828589       -0.31852839006734        0.09796509357710
H           -2.35713765692404       -1.98167679920087       -0.67091629072341
