34
 energy: -7.381363947176 gnorm: 0.000506638745 xtb: 6.5.0 (97a52f5)
O            0.50165611541950       -2.80961202601025       -0.13398379292104
C            0.66172740957605       -1.60522618235495       -0.00496662397379
C            1.96776173107114       -1.04258041801357        0.18749324050529
C            2.17309594951809        0.29238683063567        0.35528304463039
N            3.41394656940277        0.86163497106906        0.58717976311580
C            4.72114525308254        0.33107022477724        0.54868299472349
C            5.66535831765086        0.77515793026847        1.47944418808391
C            6.93359350330419        0.25388218617071        1.50073433973504
C            7.30432345295919       -0.71935855648981        0.58855355751197
N            8.65035136259479       -1.28186057346197        0.61591075238348
O            9.43974505230024       -0.88946511270898        1.48131175173194
O            8.95312098956146       -2.13141399840344       -0.22816235683833
C            6.39606119806069       -1.14864928411737       -0.35593083190761
C            5.12185710514428       -0.62707203591758       -0.39682437337206
N            4.24724633377715       -1.02768955128320       -1.49690288305200
O            4.07336227766339       -2.23513089758503       -1.69498490417141
O            3.71751783871906       -0.15386686927878       -2.19194620750563
C            1.03912674135544        1.21951941528393        0.38055688747812
O            1.23370638500003        2.39917347745329        0.59344182575044
C           -0.30809313316326        0.68379086103261        0.15377956114962
C           -1.40845034973373        1.52778412972395        0.13645656606880
C           -2.67206318953430        1.02444501907038       -0.06590869561803
C           -2.85468158062188       -0.33348818232043       -0.25375127566824
C           -1.77346595217580       -1.18328124962133       -0.23793212400932
C           -0.49260325580411       -0.69187131900780       -0.03533809667648
H            2.80013431390834       -1.72120556393439        0.20385541722965
H            3.34047627605959        1.84555121996852        0.85881161040991
H            5.37406181042674        1.51717392475491        2.20403252599248
H            7.65773784421241        0.58557780092517        2.22797362533645
H            6.69339678175741       -1.89433961833881       -1.07553169450620
H           -1.24942182194217        2.58375132955690        0.28718451736906
H           -3.52199893641387        1.68878185853833       -0.07661803421190
H           -3.84715244800619       -0.72672978958330       -0.41070187296731
H           -1.90041994512647       -2.24490995079703       -0.37851240180481
