30
 energy: -3.535677487613 gnorm: 0.002676247553 xtb: 6.5.0 (97a52f5)
O            0.66781654956366       -2.83943789116324       -0.20466770800364
C            0.99741399135136       -1.69479944383274       -0.33423835557039
C            2.21685651061855       -1.10137586828120       -0.23702276049879
C            2.43834349923372        0.17292889451563       -0.36746104231668
N            3.59635736869438        0.78232516950809       -0.27932029137090
C            4.73591136618510        0.15267250355278       -0.02362084553351
C            5.94259849824475        0.69123249963254        0.03504195059965
C            7.09195167910908        0.09743984406819        0.28376319009824
C            7.39066515401855       -1.17410443830259        0.48361935375411
C            6.62742165275543       -2.23331622140155        0.36956015656120
C            5.52795832572348       -2.25963599135622       -0.36773789541731
C           -2.19678782319679        8.81047663966097       -2.39556685126824
O            0.74132639962929        7.44231501132295       -0.31981896162638
C           -2.01502738819373       -0.08407838554029       -2.40325919248055
C           -4.87235356351589       -3.21774129409518        1.74287623621333
C           -5.27397119023489       -2.31496628064419        0.91989807689598
C           -4.57956725743466       -1.68307751271432       -0.00542505989212
C           -3.27404926226008       -1.79482285080664       -0.34295328174765
C           -2.41739788826229       -2.63126445549638        0.24562206797865
H            8.49075627631133       -6.05167295987199        2.23454012052456
H            3.98277054177310        6.99726137259156       -0.98950057002466
H            4.18730468225577        4.06135841061157        6.51536410170192
H           14.24751687690236        2.54065091142428        5.55798067384420
H           13.61066183410071       -5.84984847471367        1.79130767873622
H            3.87985380013958       -3.19024032180644       -0.33413829228774
H            5.59038620489067       -1.98536573209553       -2.18216130522455
H            0.03074369084740        4.00675807305578       -0.72017825364778
H           -6.40500360631138        7.37783266673619        0.55081290903183
H           -2.90865428533755       -1.14423596112208       -1.12551688473312
H           -1.39645264119127       -2.70565791228426       -0.00065896679328
