27
 energy: -5.184210025538 gnorm: 0.000957775847 xtb: 6.5.0 (97a52f5)
O            2.20573804334757       -0.10610247010577       -0.05919847554890
C            0.99376326839849       -0.04485954136647        0.05065248306958
C            0.17331641229830       -1.22654267169108       -0.00197048134965
C           -1.18440005559881       -1.21308716796357        0.04720719728503
N           -1.88252934012048       -2.41054092714436        0.03339474482801
C           -3.29736665623475       -2.60605248047056        0.01031480858748
C           -3.91532653709217       -3.38622318757534        0.98603540780638
C           -5.27807336163444       -3.58049798523211        0.97086077003924
C           -6.04842752600919       -3.00977489260676       -0.02326859809895
C           -5.44942172054904       -2.24773774095657       -1.00719268533689
C           -4.08728403974871       -2.04872712748335       -0.99389959693655
C           -1.92646678321484        0.08137317712752        0.19509616165143
C           -1.12297747828056        1.29948138451464       -0.29843883820274
C            0.31675125130476        1.28854554792796        0.24302695322600
H            0.68234741928058       -2.16578713338648       -0.10297783426565
H           -1.32600638861690       -3.25319314910502        0.15118177896090
H           -3.31073984865125       -3.82379247466491        1.76104394735131
H           -5.74478206710440       -4.17822490105869        1.73667256809805
H           -7.11518683239032       -3.16265151711650       -0.03366969238337
H           -6.04899827734651       -1.81192590052530       -1.78952088989735
H           -3.61273893701447       -1.48373997759058       -1.77701611390924
H           -2.18482924603558        0.21191177426678        1.25208435777084
H           -2.88299839333399        0.01856130194820       -0.33296427679504
H           -1.63031889141359        2.23261283817958       -0.01762830076093
H           -1.09823911919970        1.29785410320452       -1.39485187198868
H            0.31484255623414        1.52629771076361        1.31171412540335
H            0.92410254872599        2.06223340811068       -0.23978764860368
