30
 energy: -6.442252915308 gnorm: 0.000787583212 xtb: 6.5.0 (97a52f5)
O            0.52693760966314       -2.83016926247906       -0.19100201978343
C            0.67897238393099       -1.62532902080934       -0.04109857880731
C            1.98327904436632       -1.05789340687196        0.14661184840416
C            2.19089171711941        0.27557812143337        0.32268571580694
N            3.42817249129155        0.84202806731492        0.55644852659040
C            4.73217480280992        0.29742981206804        0.58520353803690
C            5.67706811196199        0.81532737995017        1.46815891615240
C            6.95294725268328        0.30556147142264        1.51672909007532
C            7.31622955878211       -0.72751587705596        0.67763537715939
C            6.40193626476289       -1.23913230784945       -0.21845785207186
C            5.12071195455757       -0.73149758229462       -0.28653300790946
F            4.27568705319270       -1.17213242743692       -1.24370034833646
C            1.05554397758577        1.20533591800070        0.34969606149571
O            1.24973956845993        2.38906299190087        0.54583643399800
C           -0.29457837061604        0.66248663232610        0.14319695846522
C           -1.39763346365210        1.50314119555484        0.14110338734740
C           -2.66339271657208        0.99806475389003       -0.04428197803409
C           -2.84564745349160       -0.35962899657810       -0.23056518450336
C           -1.76166060869794       -1.20641552381660       -0.23026194341091
C           -0.47880197439123       -0.71346614109864       -0.04457472149525
H            2.82016425189512       -1.72871182889876        0.14353682612568
H            3.36116937759940        1.83343376956908        0.79483631080647
H            5.38721215766670        1.61319135230553        2.12960882272062
H            7.66945526863987        0.71100061918229        2.21229504841746
H            8.31526550313824       -1.12998745918204        0.71781687488945
H            6.67608058404510       -2.03343920085637       -0.89054683512594
H           -1.24142320389255        2.55834822039910        0.28967040433325
H           -3.51376265894374        1.66029850767241       -0.04330430688246
H           -3.83796592001350       -0.75463446523547       -0.37504004774979
H           -1.89012256388045       -2.26612531252763       -0.37355331671548
