21
 energy: -4.285859057552 gnorm: 0.000372321415 xtb: 6.5.0 (97a52f5)
O            2.27602649299888       -0.36873902841680        1.33342085262046
C            2.84273582027079        0.00569397986811        0.32701022898909
C            3.37138113056781       -1.03748607374846       -0.60842570149720
C            3.75952965438905       -0.44754589241864       -1.92279629689227
O            3.08899116995247       -0.66073813535289       -2.91354585449431
N            4.86806623027138        0.44388591427464       -1.88520434770816
C            4.54572618532078        1.82928222771881       -1.77910323796477
C            5.16290310194571        2.76195444962317       -2.60580943768050
C            4.82815472066326        4.09201762931975       -2.52956075587041
Br           5.67388262618460        5.32463359631023       -3.66970018547789
C            3.87955260619717        4.51691297737318       -1.62834225383865
C            3.26298641968728        3.60589179358254       -0.79151253148165
C            3.57566028443050        2.25179460592655       -0.84287469821078
N            2.96805926307824        1.37756214869312        0.10166025005640
H            2.60042384412581       -1.79482455958644       -0.76962160770636
H            4.22317056136658       -1.54460475097761       -0.14942323143909
H            5.63568524468504        0.16600882736216       -1.27493295006448
H            5.89737097526144        2.43450218873296       -3.32139383776861
H            3.62872376855467        5.56474536274631       -1.58248902749993
H            2.52713329697276        3.94721116994021       -0.08436918838703
H            2.49548660307573        1.87533156902916        0.84646381231601
