24
 energy: -4.956874712110 gnorm: 0.000905511070 xtb: 6.5.0 (97a52f5)
O           -2.49197592735517        1.95245989693309        0.09126297724102
C           -1.56261660865214        1.21540859115454       -0.15647217613170
C           -1.76277268198724        0.01371286604830       -1.01394441879347
C           -1.53726764406482       -1.23613142837153       -0.23609579761663
O           -2.45076841446835       -2.00684638272477       -0.03518120164418
N           -0.26535783905969       -1.48626486175714        0.23905965248150
C            0.90742614415177       -0.69819875987553        0.12631034836576
C            2.12809068566110       -1.34925727607145        0.04755655718450
C            3.32921483856440       -0.65963299075519       -0.00288251580775
C            4.59564184100830       -1.43385962069426       -0.08847930602006
O            4.63681958182696       -2.52207108820572        0.45502198519063
O            5.64135503706945       -0.90681804852844       -0.78352774741573
C            3.30709606604980        0.72607702598871        0.07468593129507
C            2.11031128519870        1.39490596402309        0.16771467025365
C            0.89446539162899        0.71601591021838        0.18123832302651
N           -0.29417882280114        1.46605269950116        0.33291915747884
H           -1.08987824460071        0.04884092127372       -1.87538648774699
H           -2.78651517678924        0.01556380830334       -1.39954499189811
H           -0.16948490408651       -2.37840712455264        0.70684486547728
H            2.15629661835360       -2.42479456785471        0.02923706853288
H            5.41574916617874       -0.08078017288088       -1.24590730821752
H            4.23328409699609        1.27502918644651        0.10138304853029
H            2.10401423936846        2.47036992881676        0.22698610796979
H           -0.21777872819120        2.34053552356454        0.83645125826452
