21
 energy: -4.254876998081 gnorm: 0.000869704268 xtb: 6.5.0 (97a52f5)
O            2.21692855456080       -0.36039231290454        1.35270678889170
C            2.77154976957701        0.02537529413290        0.34291446471337
C            3.25438389744895       -1.01190749293357       -0.62519802596698
C            3.69606248868681       -0.40716715267664       -1.91634239269527
O            3.05937602734595       -0.59947702840306       -2.93343363426688
N            4.81330929077181        0.46982763992371       -1.82986000507609
C            4.49335688108015        1.85690531799938       -1.73591352304501
C            5.10165996040455        2.78405078012417       -2.56967984413850
C            4.74722408960160        4.11571880147602       -2.51153197715890
Cl           5.51074485660821        5.25535633103945       -3.56372140939396
C            3.78131047052374        4.53593437643647       -1.61655014260491
C            3.17593908128298        3.62554184868263       -0.77601712189054
C            3.51141475658120        2.27664403493968       -0.81168370421770
N            2.92304267386871        1.39691742358745        0.14923771002368
H            2.44363660604391       -1.71782950194189       -0.82160296671003
H            4.06865858883814       -1.58288809797244       -0.17286564498671
H            5.54744012872104        0.18422433070676       -1.18239233354865
H            5.84079751152505        2.45933897459397       -3.27991259635549
H            3.51472284651402        5.57943778414688       -1.58556278536161
H            2.42930760206297        3.96042310759386       -0.07682193714443
H            2.49434391795241        1.89076554144880        0.92248108093289
