21
 energy: -2.980094831316 gnorm: 0.000850526076 xtb: 6.5.0 (97a52f5)
O           -2.46320609035702        2.20974753007986        1.35982100052588
C           -2.33295032136806        1.04315150234780        1.17185197902319
C           -1.99432570474470        0.36208782005146       -0.02228443947423
C           -1.81617459011480       -1.08868931670636        0.14479625401515
O           -2.79627383626852       -1.80554448542313        0.15974951394746
N           -0.56259607671518       -1.58781888097768        0.30041351553113
C            0.70605766626911       -1.01923749285002        0.24872531703064
C            1.69270843301286       -1.71542714743199        0.89266962930721
C            2.97836709186992       -1.45032608471683        1.00985870407531
C            3.86331677870228       -2.26227119480864        1.67846727229578
C            2.06184197007952        2.01664628263009       -1.28026279145381
C            1.95228665177776        0.87962369344645       -0.61902347949555
N            0.89504170771345        0.14443634792973       -0.44246200737582
H           -0.75836382790668        0.36064651962021       -4.75288933399865
H           -2.66846112733031        0.59861491472352       -0.82643483758859
H           -3.88435321490269       -3.42183776309430        0.28477155255626
H            3.11806848584885       -8.39741005205551       -0.76518876037473
H           10.80048333136120       -1.27004932786253       -0.74468373660319
H            2.96489692846278        2.54726859940879       -1.37737087134931
H            1.30818305567039        9.72006221969416       -0.45034766282305
H           -2.78654730905713        4.05259631678996        1.70139318119245
