45
 energy: -9.717467916250 gnorm: 0.000433606652 xtb: 6.5.0 (97a52f5)
O            1.39549273694127        0.60876298550357       -1.09378387094640
C            2.37209013639977        0.48983413052176       -0.38665273183284
C            3.24781777595629        1.69669396969893       -0.18244814692883
C            3.86686486934914        1.74718498351217        1.22998770685062
C            2.90509032768021        2.30303737722674        2.25750898037013
C            1.74234185475103        1.61622343589784        2.57608487415395
C            0.87180743888894        2.10583433930838        3.52352693818812
C            1.15485160270026        3.29654535617909        4.16991335711613
Cl           0.06614522224296        3.91497460665692        5.36024220579229
C            2.31172921314649        3.99095829755765        3.86162488036046
C            3.17867864270304        3.49666173510080        2.91277716639538
C            4.37683907322299        0.39321456023702        1.63811068486784
C            3.78645706571474       -0.73423199069949        1.11940732080498
C            4.26096265419563       -2.03621910405302        1.52185448343470
C            3.68889731510230       -3.19433064714681        0.99204066095646
C            4.13614239690653       -4.43319140318666        1.36829724923120
C            5.16984900575223       -4.54980738868757        2.28857689293655
C            5.74394736303112       -3.42666590086181        2.82247520462571
C            5.30644482022783       -2.15115051307663        2.45324393771302
C            5.90937716432362       -0.96442281073833        3.02109572865989
N            6.86841987263277       -1.11184226611408        3.91876996870515
C            7.36418295455069        0.03360696220572        4.41508044007427
C            8.38110175228244       -0.02103565674749        5.39255579420387
C            8.90761653475035        1.11445148159470        5.92974279034216
C            8.44710886544367        2.36726169037278        5.51686768043602
C            7.46932114812732        2.46096109614803        4.57458731244933
C            6.89704850843230        1.30664623395122        3.99457159377351
N            5.93375703145774        1.44794035309701        3.07508669100493
C            5.43752386221610        0.31206920046263        2.59770692752517
O            2.71448968011471       -0.69618370370213        0.22651770998020
H            2.64569763277924        2.59402666306610       -0.35340921824345
H            4.02955588290052        1.69248466021460       -0.94777856726339
H            4.74072775306031        2.41794552228831        1.20063307759976
H            1.53060146750916        0.68923812701708        2.07205598750642
H           -0.03102688279528        1.57467980735007        3.77289608632531
H            2.52095267170629        4.91462203836402        4.37416689449706
H            4.08217891380975        4.03242887897443        2.67811212708618
H            2.88843794753602       -3.09129309869465        0.27958304656231
H            3.68629029138606       -5.31882248053680        0.95054002507684
H            5.51926389454310       -5.52566633929808        2.58313244935407
H            6.54397183574630       -3.50952683911204        3.53696873690111
H            8.73136783154418       -0.98807867789841        5.70785171468750
H            9.68164146039343        1.04928295788294        6.67663071317731
H            8.86823932989406        3.26043736307682        5.94811195917185
H            7.10890308073875        3.42239000708331        4.25321453631302
