45
 energy: -9.694881441775 gnorm: 0.000370114052 xtb: 6.5.0 (97a52f5)
O            1.40669139060586        0.58214579730462       -1.13031511981479
C            2.37155830593336        0.46039712453102       -0.40740866166060
C            3.24845105104892        1.66442274945679       -0.19097433165907
C            3.85045540200104        1.71096622107913        1.22859204206803
C            2.87595324259875        2.26236493846910        2.24676285603913
C            1.71035393527780        1.57657911623451        2.54898585082534
C            0.82936117163410        2.05812937530742        3.48800677027485
C            1.08466844228948        3.25580811503403        4.16685137110198
F            0.18283957414091        3.75590644731725        5.13642956624802
C            2.26531858311925        3.94033433485120        3.85350388833586
C            3.14012632330612        3.45025954723241        2.91243203906096
C            4.35643230712372        0.35562358922574        1.63708907874319
C            3.76545145524058       -0.76934253430861        1.11350613117408
C            4.23471437559355       -2.07287778361460        1.51673592920888
C            3.65980376980174       -3.22914120390323        0.98568832524927
C            4.10253235126673       -4.46953990527363        1.36190168203397
C            5.13468773036775       -4.58960688198791        2.28336023660687
C            5.71151614927280       -3.46858712649088        2.81854596189047
C            5.27837593204815       -2.19140895248354        2.44974801332481
C            5.88427489030964       -1.00731195905650        3.01985007990400
N            6.84335779710527       -1.15848983195957        3.91720473398669
C            7.34269789953141       -0.01458297744661        4.41380630799335
C            8.35956486644637       -0.07243889536077        5.39119363826539
C            8.89073920964583        1.06108584897500        5.92780807128801
C            8.43486112589822        2.31547550853819        5.51496983601708
C            7.45694783642812        2.41250300185115        4.57323287264270
C            6.88017035099658        1.26030751745012        3.99344186569644
N            5.91633947593817        1.40527529276011        3.07491606621475
C            5.41570314781667        0.27094108122519        2.59784956085890
O            2.69953292658099       -0.72627581682859        0.21287217164988
H            2.65146186593278        2.56384881695887       -0.36810720582453
H            4.03950764539671        1.65940145432058       -0.94650023836712
H            4.72399016618187        2.38243403740918        1.21187127101093
H            1.50524319326470        0.65265389928382        2.03675317403973
H           -0.07236424384537        1.51730346150979        3.71635554361405
H            2.47981042385557        4.86093314380465        4.36770552550461
H            4.04713985089655        3.98587553570531        2.69138780866416
H            2.86058224797506       -3.12377564850783        0.27236291394631
H            3.65087786110509       -5.35375743991839        0.94327457486721
H            5.48050630476916       -5.56680022886745        2.57757451841112
H            6.51024573662264       -3.55408623006913        3.53400874049514
H            8.70639318206962       -1.04055818954860        5.70666996118877
H            9.66494088022892        0.99338056561247        6.67418572636916
H            8.85975754983614        3.20699540173616        5.94575878351689
H            7.09992631633986        3.37516968244551        4.25204206899616
