47
 energy: -10.094918295323 gnorm: 0.000334699654 xtb: 6.5.0 (97a52f5)
O            1.29957674103680        0.57422688818959       -1.18876134537796
C            2.25626978304607        0.46339541221479       -0.45524988624851
C            3.13474299994952        1.66849076638511       -0.25539512785656
C            3.72375781958865        1.73787986518561        1.17023932932607
C            2.73671296411216        2.29500974832266        2.17335150643487
C            1.57456480041379        1.60279899565256        2.47444646615919
C            0.68755721407998        2.08917698831418        3.40788203474847
C            0.94781031920172        3.27833388437033        4.05840598283326
N            0.00904791779692        3.79404121808047        5.05768262274730
O           -1.02327865744369        3.15107551930968        5.28890387276936
O            0.28141542975794        4.85425304975060        5.63592805767909
C            2.10135193132213        3.97679253811695        3.76422289352503
C            2.98851712433837        3.49025998511818        2.83023738855225
C            4.22668708821607        0.38840458552472        1.60113044438496
C            3.63162458393098       -0.74245822945437        1.09653723023726
C            4.09006112042541       -2.04054118349585        1.52348587102396
C            3.50560182687358       -3.20119312722915        1.01333743108926
C            3.93809577824291       -4.43729268776655        1.41364067520077
C            4.96883086199351       -4.54821744447714        2.33839835854690
C            5.55445610860594       -3.42284139655243        2.85382408579303
C            5.13147261650318       -2.14937182057323        2.46076607724470
C            5.74199862315433       -0.95955449153218        3.00973801213411
N            6.69834708306334       -1.10156763392975        3.91331251267015
C            7.20084491937922        0.04451601037406        4.39006268827013
C            8.21393725434125       -0.00637526741590        5.37456556993123
C            8.75313014047942        1.13336329771602        5.89651486440531
Cl           9.98154092729546        1.02906037578940        7.09901588888855
C            8.30405460635965        2.39485315882653        5.45476322579450
Cl           8.98320039107896        3.83248165284865        6.11647400305558
C            7.32892167336450        2.47895713134519        4.50457624761698
C            6.74695593129933        1.31763076017362        3.94494449296953
N            5.78751162814598        1.45309180374212        3.02510527469546
C            5.28267174727297        0.31296073585430        2.56569311579727
O            2.56826909443286       -0.70912165539634        0.19329543388420
H            2.54108009478424        2.56581700031822       -0.45520507695966
H            3.93297398044269        1.64613408925603       -1.00346535239695
H            4.59622662324894        2.41106878959620        1.15377804972144
H            1.37591426707213        0.67245340483856        1.97043367552542
H           -0.21555216971555        1.55243478705299        3.64601237156019
H            2.29427627626268        4.90260976254150        4.28014785758356
H            3.89115042430826        4.03452953712816        2.61104734266051
H            2.70714000517645       -3.10066007549676        0.29752903926786
H            3.47941430775880       -5.32606078742790        1.01165236607840
H            5.30655967381399       -5.52304235350720        2.65053012538618
H            6.35187888647541       -3.50084675631229        3.57234721605122
H            8.56146593961511       -0.96366348734258        5.71827020408465
H            6.99098129910000        3.44445665597169        4.17441688252134
