47
 energy: -6.174258019787 gnorm: 0.267181169750 xtb: 6.5.0 (97a52f5)
O            1.53488316045475        0.81863965886818        0.00523035827406
C            2.55317801682055        0.91660755632271       -0.59547230600314
C            3.81465739132851        1.41716801666239       -0.18179781190646
C            4.18575700757579        1.12368534453912        1.22195899240814
C            3.46156304429923        1.87724531235371        2.28261994051310
C            2.45089502553215        1.26575474421167        2.95774721144632
C            1.58522093627609        1.70939761313378        3.85471977387659
C            1.24103265899136        2.93502119188162        4.19276398373127
C            1.54270374337214        4.04278383330580        3.46513063768952
N            1.77296797769270        5.19640176248349        3.98597265991712
O            1.90613503982712        7.29787679120941        8.01260199842782
O            7.10159399180144       10.34449923210335        2.64904240080660
C            3.84125704192517        3.10312984224182        2.55463441240691
C            4.57604067085208       -0.21829981639337        1.53790817423041
C            4.11753883261615       -1.31416908352456        1.00487007672441
C            4.42889828133417       -2.64566663889843        1.32383571650262
C            3.92145863614332       -3.65230203408349        0.54669888129956
C            4.18201215898476       -4.91149063179867        0.79676253162823
C            4.95214944647443       -5.26373074584786        1.81945310201366
C            5.47207388355124       -4.35855185362795        2.61145597509193
C            5.24531372696479       -3.02093023414116        2.42014111020133
C            5.79162341059394       -2.07686858946826        3.30742440718128
N            6.54460203650990       -2.32603825042392        4.32508317668936
C            6.83055196326289       -1.21473261209190        4.95378123513693
C            7.59087843438718       -1.09980217918129        6.05519989445115
C            7.86299652689179        0.00357515226865        6.69585788069057
C            7.35939885131941        1.23074481118064        6.33892746194205
C            7.88018136953044        6.94438688420981        1.63964860024391
C            9.04729944425490        6.59830179250910        0.99340352224763
N            7.03283849056540        6.11125175781805        2.12138585154705
C            7.10733564593177        4.84220172719573        2.09159526653473
O            0.28010907833573       -4.10931333288910        0.89373135042043
H            1.16034889554386        5.36048079303758       -2.01670306097374
H            5.80717311572854        1.42943690687106       -5.65643483698552
H            3.93601318179116        2.45721624078981       -0.42744340899757
H           -0.01290712347011       -3.71275590049208        2.65622639524524
H           -3.18671337312610        1.65074317463569        4.79292581357958
H            1.87266273604890        6.03920484019860        5.93051431418161
H            1.23212186374135        4.81792969312136        2.27990120445594
H           -0.11348278592074       -3.23914615346236       -0.67928448416737
H            0.15929589419932       -7.55513707877035       -0.43921262324046
H            7.82343458406147       -9.12854615229651        3.84231277435050
H            8.59697253085453       -3.16447944581006        3.98792011480863
H            9.76543921017525       -5.08107186154527        8.81039895943823
H           10.11943555023607        0.27469019149134        7.74111686595209
H            7.09357636646099        3.71225193372314        6.58645009639152
H            4.97628342980588        8.15452579604909        7.21147540945113
