81
 energy: -15.599997319617 gnorm: 0.000417937591 xtb: 6.5.0 (97a52f5)
C           -2.84498413595829        1.84496555914983       -1.34819343448993
C           -1.38654765798107        1.35719105086920       -1.25967196834285
C           -0.85408048923633        1.57106914439753        0.16973064476537
C           -1.36203895452468       -0.15308781406514       -1.56697121967475
C           -0.51841512707242        2.15507863978835       -2.24589855987348
C            0.22936220711827        1.54451700202279       -3.24636752757494
C            1.02231382548298        2.28417388338609       -4.09604900969917
C            1.09857638934740        3.66849548756811       -3.97518496481915
C            1.99553704289975        4.46049776457031       -4.85217010788229
C            3.05038358967239        5.18234191717108       -4.37796836183875
C            3.55724619854799        5.28846860984244       -3.01836869311945
C            4.23922462111134        6.43427086790002       -2.61070235224818
C            4.74729251422396        6.54540013138905       -1.33630267943232
C            4.60057354168485        5.51729285233469       -0.41195220281468
C            5.15214980689001        5.60639395463102        1.02001856250476
C            5.84977533955563        6.95573147220077        1.28192625644617
C            3.99275907293214        5.45744191080693        2.02349374891290
C            6.17740911631229        4.47849866773797        1.24141561925417
C            3.92989027894428        4.37094421607443       -0.82012421621295
C            3.42122910599475        4.25392511497182       -2.09362223532588
Si           3.87675994632022        5.91963352092795       -5.84958507158689
C            3.89349496653444        7.77678871257296       -5.74851357306505
C            5.09255077577177        8.45408799123915       -5.68806691947049
C            5.10457063530513        9.82841707162917       -5.54989757356554
C            3.91274281949945       10.52240517498099       -5.47325205634184
C            2.71151031709476        9.84292243521089       -5.53280370141565
C            2.70406800600462        8.46814407675334       -5.67001473695797
C            5.55825262630494        5.16385000629259       -6.11362605360737
C            6.08676945059024        5.08132564815183       -7.38389797992283
C            7.34930017945511        4.55409768910982       -7.57578166919102
C            8.08227583575945        4.11032719560819       -6.49242428179522
C            7.55356570391783        4.19406991031194       -5.21921381111106
C            6.29134716394674        4.72221684094927       -5.03296545449089
C            2.65393876580746        5.30575898285957       -7.07393519100988
C            2.50258248453269        5.47492386668025       -8.42937223018581
C            1.43513633535712        4.87361022819921       -9.07065066771922
C            0.52937420630310        4.11305493544472       -8.35118465468224
C            0.67788289961464        3.94759713230209       -6.98942888324707
C            1.75158984374322        4.54588075764820       -6.32773316285981
C            0.34343968511737        4.28402789123615       -2.98143539073562
C           -0.44658430855011        3.53821870436713       -2.13508715377583
H           -3.48680358998615        1.27812303635437       -0.67399070767424
H           -3.23026835082597        1.72536533752045       -2.36055831432234
H           -2.92921587612076        2.89713488744527       -1.07949169137397
H           -1.43787832804226        1.00189265538054        0.89286081382535
H           -0.90044511210240        2.62099891486537        0.45633860900427
H            0.18435738333030        1.24911777088738        0.24589176029606
H           -1.98975996552541       -0.70051919097790       -0.86398513465920
H           -0.35211188295891       -0.55442544456767       -1.48614931212330
H           -1.73681065975770       -0.35542598766265       -2.57006268032934
H            0.19943824329071        0.47557230128946       -3.36115300446491
H            1.60808146540058        1.79584057989030       -4.85617070411791
H            4.36572963780002        7.23681387888541       -3.31578546092660
H            5.26575443563320        7.44602013991656       -1.05904472390806
H            5.15769261458982        7.78726103206518        1.15118772763174
H            6.69485929347445        7.09815256757511        0.60883815606945
H            6.23070668954623        7.00195072712735        2.30204029975698
H            3.24592550175919        6.23554194846471        1.86724857207944
H            4.35244505363593        5.53645620789484        3.04921893333961
H            3.49813369718830        4.49270577839753        1.91826555649757
H            6.99548231272507        4.55613822683102        0.52565810552295
H            5.71941429271552        3.49756629499407        1.12112254963647
H            6.60062004745224        4.52745196980342        2.24449497063243
H            3.80756878127203        3.55747595242092       -0.12606462695818
H            2.91664077270476        3.35112233328093       -2.38830337869351
H            6.01401455704908        7.89922707289741       -5.74507274584376
H            6.04252660818652       10.35761504359925       -5.50230687296254
H            3.92020826965186       11.59514666005182       -5.36647998266409
H            1.78104508562591       10.38370791925293       -5.47119074938408
H            1.77549934432957        7.92355334674052       -5.71120193685023
H            5.50666042747670        5.43272133850820       -8.22036875131037
H            7.76127370170634        4.48960528187230       -8.56990081603676
H            9.06738579645641        3.69836245851691       -6.64088609153691
H            8.12417930975250        3.84855324590567       -4.37235855017126
H            5.86867053552491        4.79653391981734       -4.04598671421177
H            3.20960796206177        6.07711709531255       -8.97379252110195
H            1.30787272274534        4.99906124925785      -10.13366813580094
H           -0.30074244570673        3.64863501986781       -8.85835358689510
H           -0.02967730602196        3.36413979154026       -6.42697066707045
H            0.39896619565659        5.35387044461150       -2.87362618218294
H           -1.01055184607152        4.03606898865515       -1.36542909251644
