12
 energy: -2.244420843492 gnorm: 0.000538334206 xtb: 6.5.0 (97a52f5)
O           -2.29958972858110        0.52016535997984       -0.01470603713888
C           -1.16848947087971        0.10144062381519       -0.01245108055823
C           -0.77138055534096       -1.35408093485035        0.01234796771571
C            0.77079846310923       -1.35195694641244       -0.03672195231411
C            1.16307440014463        0.10503125982758       -0.03520581715806
O            2.29265408560693        0.52787635398409       -0.03398632124612
N           -0.00395499631968        0.84796964500648       -0.03209833389962
H           -1.21572531709616       -1.87788813199904       -0.84124381043745
H           -1.15336757166316       -1.82530620284634        0.92472050434103
H            1.15444798593692       -1.83621184301194       -0.94157968261172
H            1.21696973612215       -1.86086757370531        0.82487795360186
H           -0.00528703103910        1.85358839021222       -0.02635339029443
