43
 energy: -5.976194515259 gnorm: 0.001710592330 xtb: 6.5.0 (97a52f5)
O            1.38236367228963       -0.50180898049473       -1.52779410009260
C            2.53751782329885       -0.43537194309268       -1.15619444339801
C            3.26288083551654        0.85634396539640       -1.16944850037310
C            4.40367308569630        0.94014660683623       -0.24395374223314
C            5.22534850793011       -0.27759240417887       -0.13813798163130
C            4.49384319543958       -1.48975990807605       -0.22950031352662
C            3.25432263690461       -1.61353233286177       -0.68603500956691
C            2.61805461110278       -2.89449460899254       -0.71733777273458
C            2.35530765012951       -3.44960286910456       -2.01568972090229
C            1.08928561971508       -3.76594769074160       -2.41061509008755
C           -0.11538143808992       -3.69854533662764       -1.85588524137006
C           -0.59700086315430       -3.30860529576665       -0.68934612046296
C            0.01680685954219       -2.81720954918347        0.37072120650017
C           -0.61826417997231       -2.53740554232042        1.55207138303151
C            3.35595167621027       -3.64736631742004       -2.84996144195680
C            4.52904584352720       -6.36855403343424        4.00506576463240
C            4.61457497121584       -6.44164623995351        2.74140477848250
C            4.12752937095537       -5.52913601423841        1.84671710794136
C            4.21883755664532       -5.55542595038607        0.51588276408852
C            4.56644655544380       -6.53722615947105       -0.30349530593887
C            4.51407514772272       -7.91594904104878       -0.26416503062606
C            3.43946618874581       -8.72145944859822        0.09856418733920
O            2.15966630337406       -8.34225147004471        0.29358812846630
C            1.61236551174445       -7.17734497353031        0.14321448915317
O            0.41387514931435       -6.92481034395361        0.17801918234456
N            7.58186693609275       -0.11605955925190       -2.01134243969138
H            2.41658359950166        8.73766859757952        2.84495162811127
H            3.51288067083750        1.15538625343578       -2.17326170011224
H            5.71348311136823        6.10167791745990        3.99252477384268
H            4.96972292397378        1.85672869192960       -0.31653376040046
H            7.22652306321526       -1.04305266645374        5.59049822949850
H            6.08198968331097       -0.27166513120253       -0.79641265551700
H            0.69460649612781       -2.96017847478724        3.64290328247007
H            5.72295060077035       -1.11474357068619       -6.21084815034229
H            0.22291860829648       -1.28794447502903       -8.97767553231623
H           -5.15911959370509       -1.05404049515358       -6.03119742821935
H           -7.21974176761302       -1.47898250267566        1.32027390230381
H           -2.68238402455489       -0.32243456591099        5.20265933588129
H            8.43677321523719       -1.68119328565263       -2.68222199085433
H           12.15999353945729       -6.84077753597742       -1.22475846299918
H            5.38697994582811       -8.42832378346185       -0.64780104034367
H            3.63701691823900       -9.78428495868536        0.13341348316724
H            8.88604379388437        1.26160542613145       -1.82451065707506
