46
 energy: -8.797625879658 gnorm: 0.000703809448 xtb: 6.5.0 (97a52f5)
O           -2.46932267803150       -2.35008158767502        0.48769553340590
C           -2.54172526724021       -1.16212046209576        0.23577931793455
C           -3.88545661679753       -0.48309758365714        0.20267296867125
C           -3.90986730633942        0.71924256711935       -0.75301291385523
C           -2.71844392022446        1.66056972890024       -0.50385158296972
C           -1.41462143126555        0.94060493963326       -0.36979306218522
C           -1.34894649595965       -0.37867689341497       -0.03587147831729
C           -0.02644434705746       -1.07485498414120        0.03244081604634
C            1.15411095728896       -0.15824718481757        0.09383508449046
C            1.01993608750337        1.15605457414058       -0.23768876222178
C            2.18202851758497        2.09641900816229       -0.24239934962561
C            3.53831911047671        1.38232933888593       -0.37748584475824
C            3.63650985529371        0.17868917909998        0.57244222671727
C            2.43403547894963       -0.72399964581236        0.48368849122867
O            2.54625028783550       -1.90865327771593        0.73673662935993
N           -0.23883905279866        1.66388885727617       -0.54170947442442
N           -0.34147048159807        3.07630645372337       -0.84507159182927
C           -0.54599584638992        3.96449886758973        0.18736442459936
O           -0.60302542534372        3.57166678993105        1.34402068812496
C           -0.71656338891981        5.39673602579286       -0.12349712780744
C           -0.26034147460147        5.95643028790489       -1.31502107781600
C           -0.42900103512313        7.29323114750104       -1.57307399916564
C           -1.06051066079052        8.12659529137550       -0.64415815025646
O           -1.25139574879020        9.47342063502339       -0.87321951840751
C           -1.50637370398863        7.56167848229666        0.55420360233722
C           -1.33390189996316        6.22528495609395        0.80711652660334
H           -4.13638395664685       -0.15913237142146        1.21769667517602
H           -4.64317956425800       -1.22362571070321       -0.07732515011296
H           -4.85773880471619        1.26588440769613       -0.65718954421379
H           -3.87991725036991        0.36044071539291       -1.78872291093648
H           -2.88500732329337        2.24335039032163        0.40919450315369
H           -2.63553458480764        2.39539531507883       -1.31300468937245
H            0.07647650788678       -1.73021165085566       -0.83946263011255
H           -0.01323267995965       -1.73884166723146        0.90383803782291
H            2.15573777734456        2.68182398998556        0.68375575391969
H            2.04598087419608        2.82061889149644       -1.05428649337928
H            4.36218632883957        2.08493887936138       -0.19269859805010
H            3.66837946538931        1.04063565676188       -1.41130981928023
H            3.73533942020605        0.52507529615460        1.60612148903788
H            4.53336836430856       -0.41512318019115        0.36290683456780
H           -0.42831406251868        3.36531862368911       -1.81246407724876
H            0.25029111621208        5.33671995677703       -2.03012384268539
H           -0.06947481152308        7.71368980631668       -2.49485585483758
H           -0.90172317290206        9.72408628444579       -1.74825396745447
H           -1.98754076478080        8.20097873803414        1.27255396460102
H           -1.67444639231460        5.79485211777306        1.73349794352673
