45
 energy: -8.642799444095 gnorm: 0.000565075658 xtb: 6.5.0 (97a52f5)
O           -2.45960696216697       -2.38101911373468        0.49319082219123
C           -2.53973549643220       -1.19152161743646        0.25042213187673
C           -3.88590344106971       -0.51626744860536        0.23823341468396
C           -3.92755301214365        0.68632790667184       -0.71657270234966
C           -2.73867866583959        1.63362117832943       -0.47854735421981
C           -1.42958249080159        0.92060122312059       -0.35685503784547
C           -1.35338433033010       -0.39965517413394       -0.02906503650697
C           -0.02613976497189       -1.08717391287325        0.03360306859584
C            1.14968356422800       -0.16388195964679        0.08395274960521
C            1.00564318939427        1.14998125765804       -0.24539073467419
C            2.16295554458452        2.09645729685168       -0.26492513426631
C            3.52316471736532        1.38921861054565       -0.39692782304903
C            3.62820669948535        0.19259447705223        0.56086226888797
C            2.43552794875763       -0.72235088001247        0.46771022545358
O            2.55880038511246       -1.90755079934804        0.71337121513291
N           -0.25911347291029        1.65087632646454       -0.53783811155731
N           -0.37078075294247        3.05774317856920       -0.86338508559855
C           -0.57671770054393        3.96373534618186        0.15219750599140
O           -0.62452370438778        3.60226700281796        1.31856849501733
C           -0.76165455780478        5.38973672043201       -0.19882343258188
C           -1.48383700360015        6.21560416465305        0.65252855684787
C           -1.66799475805539        7.54667181106527        0.35141828933378
C           -1.12760671336215        8.07386161907959       -0.80397665353827
C           -0.39870420811241        7.26701826215971       -1.65439462856400
C           -0.21460147598011        5.93536353272563       -1.35518964615761
H           -4.12119624847915       -0.19298003240376        1.25743361696034
H           -4.64648650779631       -1.25817099992346       -0.02999337948244
H           -4.87762966693452        1.22759317909353       -0.61056907415376
H           -3.90631719198159        0.32832239813165       -1.75297418155147
H           -2.89975068513072        2.21485743028865        0.43660220146365
H           -2.66763178436800        2.36961587080530       -1.28787908620875
H            0.07510023403602       -1.74649160274698       -0.83540414213399
H           -0.00342185229919       -1.74644948711921        0.90826627373873
H            2.13675469468066        2.69246238746130        0.65447581853092
H            2.02012534264374        2.81054874836974       -1.08462431358567
H            4.34367480060274        2.09734628747590       -0.21781585584641
H            3.65392958146042        1.04096738246261       -1.42859476287659
H            3.71457666454461        0.54625313233209        1.59331147291273
H            4.53330861209809       -0.39214407472028        0.36196031500296
H           -0.46605062106686        3.33133798433794       -1.83440290596364
H           -1.89495047824727        5.79522340311920        1.55446664477428
H           -2.23325629604598        8.17679030224207        1.01832015157014
H           -1.27116067649334        9.11553545905865       -1.03981679744408
H            0.02972463691530        7.68076624730932       -2.55249395736764
H            0.37345390439005        5.31433697584251       -2.00753540104680
