28
 energy: -5.575160181435 gnorm: 0.000614192491 xtb: 6.5.0 (97a52f5)
O            1.28545203836915        0.31546093193196       -0.64027209521031
C            2.42710409756836        0.12411850780875       -0.28797506414824
C            3.01493051266048       -1.26350160292419       -0.22233555547944
C            4.11524208743550       -1.41738422871081        0.85536068086442
C            5.19182518236333       -0.30763672637242        0.79587868795076
C            4.58454706086231        1.04185027759672        0.58451907806525
C            3.30527831189219        1.22567651683278        0.09268305620985
N            3.02170821773850        2.57462686155233        0.03660808098348
C            4.12594137524694        3.27385657974764        0.48854524830508
C            4.35399473040408        4.65264145204620        0.61927204878291
C            5.57472886907928        5.05617358844654        1.10010948966668
C            6.59251801704706        4.09658308896479        1.45849311906581
C            6.37602881695210        2.75023106930357        1.33106891831519
C            5.12075444235975        2.32978855714538        0.83859502224007
O            7.71783415904193        4.77767431388828        1.91132560815868
C            7.37682954857821        6.15516998543028        1.82567551382559
O            6.05797260709010        6.33711759674801        1.32650119134059
H            3.42603649993782       -1.50958299758548       -1.20647735109131
H            2.19975609824766       -1.97476136203979       -0.04877748871570
H            4.58803395488536       -2.40495318184453        0.77078356869517
H            3.64468350706057       -1.40524245867513        1.84562076938808
H            5.89657213223919       -0.51137703447114       -0.01784300625400
H            5.78659516007665       -0.29459567349835        1.71680821810888
H            2.14626438377345        2.97057845395670       -0.30013566886214
H            3.60204516238305        5.37018174072592        0.35375609257748
H            7.13876628133402        2.04379192650131        1.59664118634158
H            8.08561942384643        6.65687838578116        1.15259291747591
H            7.44407732152650        6.60224543171351        2.82704773339965
