63
 energy: -12.250419787774 gnorm: 0.000795564690 xtb: 6.5.0 (97a52f5)
O            2.91483313574973        1.29659966189635        0.61385067200354
C            4.06476359119995        1.23857364727850        0.96632097297281
C            4.84807969514531        2.50514977681272        1.20205793010506
C            5.98147777819891        2.71090029021826        0.23567253654612
C            7.25733986569329        2.92344672829297        0.73900302906758
C            8.38153150176721        2.95718765324915       -0.07186372511393
C            8.22980729418687        2.63945303412053       -1.42700690440596
C            6.94736374792643        2.55005647299598       -1.94543309548761
C            5.81439596234494        2.63454860633185       -1.15077046483187
C            4.46263770819621        2.65236160759670       -1.80960380028182
C            3.71522008517068        3.99399253987252       -1.71037806314065
C            4.41212250538001        5.18773219913103       -2.38862047482087
C            5.71856614234460        5.57553820800672       -1.75523143843879
C            5.78307460119725        5.90356267779454       -0.40980346865514
C            7.00001250751695        6.08170418681474        0.21591706435673
C            8.18553179647398        5.94343864544499       -0.48867972988703
C            8.11727252787161        5.71307912346208       -1.85447575333471
C            6.90061642614624        5.53131126560709       -2.47961409163829
C            9.50459660222038        5.93682476652080        0.22945741739027
C            9.68424963467501        4.75162752158500        1.19628991687186
C            9.70163096342224        3.36498268216061        0.52549927731334
C            9.39541099313009        2.32607191334778       -2.32344300542980
C            9.10745665575311        1.18303622958934       -3.26220316789239
O            8.86446068790093        1.39452519769385       -4.42193516025920
C            9.09663278564209       -0.21876640998180       -2.70428919268996
C            8.00433048637233       -0.43709579380781       -1.70576633242940
C            8.22241997413797       -0.31088298824552       -0.36536866344048
C            7.16292570723477       -0.27110283001814        0.57457219591591
C            5.85363193496427       -0.35545590702493        0.20245548827472
C            5.56339035327882       -0.57692091641632       -1.18567041770372
N            4.37805866059525       -0.71561815589077       -1.74214073853852
S            4.59491913998760       -0.88233788970789       -3.36225821531114
N            6.23472219246410       -0.78121836465230       -3.38935619123751
C            6.65144403797911       -0.61663660466166       -2.15110232246541
C            4.74142297819052       -0.09488042393008        1.16896491363586
H            5.23462756424614        2.49123894437519        2.22564515127500
H            4.16729586635396        3.35825928170269        1.16090768386987
H            7.38033363101953        3.05850463408219        1.79860200472268
H            6.83460427072613        2.38171946930985       -3.00153832491366
H            4.58023755322647        2.38703051791152       -2.86577279214059
H            3.85488894253953        1.84688606926948       -1.38246666172136
H            2.70877017032206        3.87511323953031       -2.13353725594954
H            3.54804370641587        4.23547426073449       -0.65667569113982
H            3.75309820748938        6.06408155649028       -2.38222071653242
H            4.57791888257596        4.95482083366113       -3.44586042427323
H            4.87185508580663        5.97381797749981        0.15835301952863
H            7.03800198056439        6.28402398367643        1.27228166202317
H            9.02937975920785        5.62285045530353       -2.41833677708308
H            6.86646133490314        5.29409224002953       -3.52878446854924
H            9.60922194817569        6.88505519300360        0.77004894570979
H           10.31567313806697        5.93045179523056       -0.50646383355942
H            8.88653914195367        4.77806924032058        1.94606925344927
H           10.61369692754359        4.88945435083817        1.76446973758390
H           10.00335528718282        2.59653889875814        1.24707240473025
H           10.47834207544926        3.36741555221183       -0.24375327064932
H           10.27736993581193        2.06886802042614       -1.73150623175226
H            9.65702322046902        3.21130212273961       -2.90946985647737
H           10.06818380137239       -0.44465956624451       -2.25523964222576
H            8.97054948815856       -0.92107112157268       -3.53294389377164
H            9.22952486962109       -0.15653219063746       -0.01895065572008
H            7.39490839794417       -0.09462216068274        1.61054304011284
H            5.11116924780827       -0.16459605850894        2.19609265193821
H            3.98853490458269       -0.88094589094539        1.06276794450612
