37
 energy: -7.561456084501 gnorm: 0.000468058889 xtb: 6.5.0 (97a52f5)
O            3.62639416049021       -3.02898030263063       -0.51506534216711
C            4.36519098991530       -2.38618203842656        0.18358673082473
C            4.33041007559715       -0.88007100934729        0.13027880327867
C            5.56447451019818       -0.29480133886219       -0.48919186888163
C            6.33295630231389        0.63509658947087        0.19449973961379
C            7.57202824591129        1.00855739086663       -0.28129677713107
C            8.07373251550706        0.46018319541052       -1.45193391923305
C            7.26257419475393       -0.39083934534691       -2.18457533350619
C            6.02366490344342       -0.76436649257559       -1.70883546757005
C            9.50258251094432        0.67689885081872       -1.85403481324455
C           10.22046081198867       -0.61302855011388       -2.15835207101055
O           10.49858082749149       -0.89200225203159       -3.29497922045079
C           10.55713259500156       -1.55525033880909       -1.02894912157420
C            9.34636418767845       -2.13570395722016       -0.36824340183500
C            8.87912716085737       -1.66315577392018        0.82284856856814
C            7.61161405953893       -2.03056062635826        1.33954550694587
C            6.77414085608674       -2.88240557063150        0.68097688173105
C            7.25365086896916       -3.49064826811846       -0.52737412778741
N            6.62568749612312       -4.36415320596490       -1.28500375329919
S            7.58141937665463       -4.69785825172741       -2.57734869613394
N            8.83952078586542       -3.71688428442511       -2.19134586706288
C            8.55177713714913       -3.11080756181516       -1.05938946365782
C            5.34936555109049       -3.07138481612843        1.09933258596496
H            4.18779970641965       -0.48260375235396        1.13924530064451
H            3.45456930384101       -0.57106911893311       -0.44739982742385
H            5.97816314158207        1.02422004110158        1.13332327826143
H            8.18306834459473        1.68878314990767        0.28669720787715
H            7.64631999223152       -0.82022657648437       -3.09425561373985
H            5.43292924407393       -1.48798883607333       -2.24412971279936
H           10.03902773936665        1.21510225028261       -1.06726355826378
H            9.53663853742310        1.31523674453071       -2.74144332333407
H           11.18112036815796       -1.04134394972730       -0.29213999826382
H           11.16621362924766       -2.36939229893212       -1.43199224950623
H            9.46033385533240       -0.92658429697687        1.34996343341512
H            7.26592077448361       -1.56310924907451        2.24517071436785
H            5.20633178642054       -2.71733293517348        2.12432249832911
H            5.12072345325522       -4.14084321420679        1.10971227805429
