22
 energy: -4.502432321539 gnorm: 0.000894750469 xtb: 6.5.0 (97a52f5)
O           -2.63952115887614       -0.46838583703785       -0.21968061570318
C           -1.44826784177735       -0.30322222919736       -0.08153658693895
N           -0.49053532505812       -1.28520727610694        0.04977971485072
C            0.83975674269537       -0.90949116119274        0.20310902263264
O            1.75015774991650       -1.69190259162756        0.39939415478845
C            0.97043146725073        0.54610212727161        0.12692423427403
C            2.10720797275206        1.26899385279088        0.15891678091445
C            3.46073782208261        0.71044433663073        0.13654779520396
C            4.35320656313861        0.95422194951256        1.17993754564429
C            5.61725087713596        0.41595615981090        1.17091277805455
C            6.02756878020289       -0.37448958420420        0.11273381581700
C            5.18148740685247       -0.61543293292782       -0.94122471089419
C            3.89340622815308       -0.07490141257407       -0.96533153722706
O            3.04676044592500       -0.25719906897780       -2.03389617125776
S           -0.62506992473756        1.27390386480316       -0.00014531950303
H           -0.75141723935147       -2.25865412294361        0.06734392891694
H            2.00874453551594        2.34391725857061        0.18629921028230
H            4.02873130543011        1.55936930211591        2.00929832859094
H            6.28929830488604        0.60614741249781        1.99206254357924
H            7.01886251213625       -0.79820546818401        0.11360978203098
H            5.51170582872778       -1.22039435038128       -1.76666039511623
H            3.45058694699892       -0.83058022864893       -2.70893429894005
