20
 energy: -4.426692898710 gnorm: 0.000417985786 xtb: 6.5.0 (97a52f5)
C            1.13566485528969       -0.11712281802923       -0.00338323938464
C            2.35064497134005       -0.12144014292374       -0.01922308219253
C            3.76511876356123       -0.11531308157773       -0.04050259170569
C            4.45355160881058       -1.30336817326897       -0.04451328786548
C            5.85153572347376       -1.33698346055730       -0.06838461224208
C            6.56981003855050       -0.18057173439792       -0.08792875742991
C            5.91586026591628        1.07133285774528       -0.08422005016109
C            6.63616933058640        2.28792993139267       -0.10414200964702
C            5.98357387402903        3.48323684798047       -0.09898779862386
C            4.58450811488777        3.52495984835856       -0.07358292640377
C            3.86045924159039        2.37130372871649       -0.05464509980815
C            4.50061216773966        1.11071439667870       -0.05969632967600
H            0.06954260556587       -0.10782850645676        0.00869551029202
H            3.89725131729145       -2.22519772316989       -0.02958182776777
H            6.36063935821524       -2.28691345682081       -0.07144687518962
H            7.64570321171136       -0.20702178137503       -0.10695647467110
H            7.71191131587173        2.25536535322268       -0.12359255081645
H            6.54401906415502        4.40371573312769       -0.11396900734613
H            4.08016067385478        4.47744583036050       -0.06938556792757
H            2.78530349755301        2.40700635098896       -0.03557342144091
