122
 energy: -24.648972135355 gnorm: 0.000879009627 xtb: 6.5.0 (97a52f5)
C            1.77410007348422        0.69248475749985       -0.35515211510206
C            3.14511902911735        0.00120030129863       -0.48368914219712
C            3.25078449199349       -0.60397066094372       -1.89753965902232
C            4.26878004252994        1.04060474998649       -0.31331619340314
C            3.27847875661137       -1.07215390920191        0.60816437948762
C            3.52057861618819       -2.40979173425495        0.31739715947349
C            3.62725136122202       -3.34744790453505        1.31860896468081
C            3.48852602692869       -2.98849049769884        2.65746991291286
C            3.67290319792610       -3.98785994570868        3.73123641711011
C            2.95438090912495       -4.08855924692935        4.89216450451018
C            1.76406537270949       -3.38359207606978        5.30657667747919
C            0.90913191546456       -2.75168195330539        4.39295411256188
C           -0.21650525034192       -2.09259168050281        4.81309928677754
C           -0.55082733567719       -2.03340548268711        6.16715934526118
N           -1.70945793680122       -1.32199773067649        6.60629587001946
C           -2.86460357650535       -1.22119395504920        5.75708664574405
C           -3.58947128808906       -0.03420106042116        5.68063724986943
C           -4.69924283543376        0.06076240428180        4.87139368086984
C           -5.10697581432060       -1.02727440661941        4.12438159575489
C           -4.40033888977588       -2.21229358314494        4.19056988210597
C           -3.29041856243936       -2.30976450968115        4.99928405789725
C           -1.72165776375902       -0.67786310485277        7.89097948286411
C           -2.87426743145047       -0.67228286426822        8.67304824847594
C           -2.88827642906478       -0.04614010901601        9.89918248608232
C           -1.75329031391187        0.58728830586894       10.36680279263338
C           -0.60304940124467        0.59369126003843        9.60203631835237
C           -0.58665625188854       -0.03157512257171        8.37559360287320
C            0.28222295126928       -2.68165752659703        7.08068316337263
C            1.40525426248678       -3.34433371185550        6.66084421198499
S            3.71913334691018       -5.33342309872778        5.97556493547592
O            2.80330205091870       -6.53297327440538        6.10906716914817
O            4.31401183907264       -4.66894526999836        7.19973596844414
C            4.99938250334225       -5.69952117056288        4.75335010715921
C            4.78378953304170       -4.91411285971171        3.66933251100248
S            5.96721681073881       -5.23976189291321        2.44322746479265
C            6.77501902078450       -6.44542439316514        3.41933915384514
C            7.92145470719795       -7.19488569335320        2.92548272192338
C            8.77218547665408       -6.62856453848371        1.97076710129185
C            9.85797545197002       -7.31630607966578        1.49146058057385
C           10.14090723426463       -8.60786119009646        1.93718014748372
N           11.28689668652095       -9.31594151623045        1.45702044335944
C           12.48136211737873       -8.60293333148437        1.09817749597811
C           13.24775617914522       -9.00430854735393        0.00671006993881
C           14.39562247782593       -8.32472253598774       -0.33402823998151
C           14.80077156763735       -7.23296768823422        0.40893058037652
C           14.05331975305965       -6.82384460208027        1.49608737050948
C           12.90528109965649       -7.50200393655301        1.83883310656435
C           11.26040275345106      -10.74833073819924        1.34791377299824
C           12.37739251388405      -11.50751415548801        1.68815570009308
C           12.35356498556076      -12.87983480315794        1.58073209037536
C           11.21512168284304      -13.51962616983420        1.13050349086466
C           10.09961038866746      -12.78081449072773        0.78721240873477
C           10.12102280693921      -11.40838431718701        0.89384792744152
C            9.27939239903353       -9.18817223547262        2.86863189348396
C            8.19281915258191       -8.50156614197240        3.34721009076978
C            6.13778564471547       -6.55770369346148        4.65481568342518
C            6.57731386418955       -7.41348402312575        5.77846837405683
C            7.91897656430583       -7.51160027468374        6.13496761764380
C            8.31697290469184       -8.32639674241027        7.17089305847633
C            7.39622216727807       -9.06614042514887        7.90197554740742
C            7.88244361661412       -9.97451891046914        9.04250056541926
C            8.86408719292838      -11.01948115786369        8.47817937304343
C            8.59221723742222       -9.11842487240430       10.10833489167546
C            6.71441399663532      -10.72136476729476        9.71685584346289
C            6.05337874171135       -8.94166171270739        7.56580268996917
C            5.65047457248792       -8.12806689108521        6.53068988094279
C            3.27800118510862       -1.64295837244082        2.95027848616122
C            3.16746978255307       -0.70988713391721        1.94475704920033
H            1.64287685746862        1.44494575279125       -1.13201959882513
H            1.66799638584569        1.18830121532322        0.60835409976486
H            0.96726631915181       -0.03352453003687       -0.44869377161703
H            3.13662083011744        0.16848999686290       -2.65739220096970
H            2.47287447654330       -1.34822244718510       -2.06442908009233
H            4.22070297648684       -1.07531092228728       -2.05171728530100
H            4.21085811898047        1.80759362857843       -1.08484396650171
H            5.24630954085801        0.56483428088676       -0.38268900689258
H            4.20600471906756        1.53570513868930        0.65446909090137
H            3.62659490227150       -2.72568284648108       -0.70503359148423
H            3.82085264948690       -4.37764641979547        1.07493636167108
H            1.13224524063050       -2.80782535550770        3.34273110772961
H           -0.85186126401210       -1.59778051381089        4.09974550433716
H           -3.26336782720392        0.81191253258606        6.25984464746940
H           -5.25049146247922        0.98543877341010        4.82024758885310
H           -5.97575310307477       -0.95208818579825        3.49107442450487
H           -4.71879184957334       -3.06220101396225        3.60941986455268
H           -2.74257108003100       -3.23364191720563        5.06331668054274
H           -3.75407416354814       -1.17111393815539        8.30587749719015
H           -3.78618443845950       -0.05008239977685       10.49527840071861
H           -1.76532578180903        1.07731545151746       11.32661971546540
H            0.28212710425987        1.09007493144911        9.96480825195782
H            0.30276458636120       -0.01892234063828        7.77009120042424
H            0.02365470123517       -2.66064916837240        8.12476301429292
H            2.04545645871928       -3.83313351677874        7.37430987119685
H            8.56423545715835       -5.63296414375235        1.61967001108893
H           10.50250380434654       -6.86802520852514        0.75569942196790
H           12.92397570410391       -9.85158069600640       -0.57195533068419
H           14.97869687925237       -8.64446261707870       -1.18217014106489
H           15.69944959700545       -6.70159348294870        0.14151156415945
H           14.36970688967040       -5.97329744061119        2.07747009770203
H           12.32573984052457       -7.19456425457785        2.69166804522945
H           13.25865556545367      -11.00388724335295        2.04504111037828
H           13.22391693154307      -13.45592434805302        1.84937397642609
H           11.19715617796272      -14.59394087887736        1.04674360428524
H            9.21167371065595      -13.27920705369561        0.43408922444013
H            9.25887272562004      -10.82687628204758        0.61780670922540
H            9.48876717074880      -10.18339395126647        3.21991662145992
H            7.52959739185408       -8.97144235064268        4.05169857132515
H            8.64768020008432       -6.94292472166431        5.58326545191783
H            9.36221531049133       -8.39309269747280        7.41770336389689
H            9.73963876493288      -10.54442737244642        8.03844893888067
H            8.38500059475485      -11.61935808520217        7.70516409650296
H            9.20967185437929      -11.69267901377362        9.26195670584646
H            9.46477923772803       -8.61496075340539        9.69501830671645
H            8.92696544044847       -9.73362401734598       10.94280520541342
H            7.91967908286991       -8.35596043995188       10.49970684563491
H            6.18710103376548      -11.35197397096645        9.00186289286556
H            6.00244419926222      -10.02276457213182       10.15482227903860
H            7.07837078367534      -11.36456415526156       10.51743607116378
H            5.30861466618481       -9.48228426500360        8.12203465528914
H            4.60407811265675       -8.01322077646684        6.30634051422663
H            3.21177896170974       -1.33847835078975        3.98067385772880
H            2.99838907780930        0.32179160272640        2.19943044621655
