36
 energy: -8.345981144992 gnorm: 0.000892677230 xtb: 6.5.0 (97a52f5)
O            1.11917854768567        0.00834083484519        0.06038618933878
C            2.33410375512129       -0.02388969231491        0.06061299471236
N            3.15284930531208       -1.14795321359992        0.06074906848973
C            4.50066653485699       -0.80571353999648        0.06081854218924
O            5.45604088575138       -1.55692767087392        0.06079587400646
C            4.54203727733850        0.66339408562419        0.06091406578988
C            3.24036270198610        1.13308276966199        0.06079226694699
C            2.98346506620233        2.52971326829837        0.06096369748272
C            1.77462565914633        3.30059756042042        0.06083465622093
C            0.42546339910213        2.94067312116793        0.06044263211527
C           -0.51990910821446        3.93208555642158        0.06030768300329
C           -0.14718280224848        5.28228984325684        0.06054603877145
C            1.17203770665595        5.65610835952072        0.06091472249570
C            2.15150420449238        4.65930225275998        0.06103854833412
N            3.54076493299903        4.73155414080134        0.06128998840347
C            4.05320307957745        3.44591884693447        0.06127379870598
C            5.39280775611501        2.96260255742238        0.06135451835306
N            6.60796055772256        3.62512582003939        0.06127438955216
C            7.63122624850170        2.68257529996275        0.06106126971108
C            9.02150293424323        2.82445553762301        0.06061819363309
C            9.79814262099175        1.69444330516846        0.06024997532174
C            9.22298629170204        0.41727580895432        0.06028210153979
C            7.86241616508165        0.25777098717451        0.06071816841862
C            7.05385669108461        1.39617110321632        0.06112047831995
C            5.63131885077870        1.57449102719602        0.06122823778322
H            2.81097891173163       -2.09522853123745        0.06051822243474
H            0.16116684430171        1.89815727011224        0.06026231355689
H           -1.56514736083098        3.67033131348255        0.06000095482306
H           -0.91307776317753        6.04031654624156        0.06042643792318
H            1.46304389959446        6.69127634016512        0.06108299641059
H            4.08805464755958        5.58958564143744        0.06192753115943
H            6.73431387670156        4.63497734263828        0.06086476775584
H            9.45859221323463        3.80691346473189        0.06055812159725
H           10.87159852801705        1.78881918188118        0.05989698112234
H            9.86035875533831       -0.45151709343007        0.05994203635490
H            7.40023818554369       -0.71335944570777        0.06068153722261
