37
 energy: -7.301920707113 gnorm: 0.000931859128 xtb: 6.5.0 (97a52f5)
O            2.21266605875723       -2.20280257400660        0.58228268407117
C            1.58328827817264       -1.18359712396237        0.35473411975847
N            2.21157827671907        0.04421426818509        0.19899028739543
C            1.57407124548487        1.25509590504056       -0.04126309513203
O            2.20108981924201        2.29578950096018       -0.16139534052051
C            0.11529364253004        1.23102456707708       -0.14358829480522
C           -0.58981830436155        2.38974140649919       -0.40645621944330
C           -1.96517713704391        2.38576640072342       -0.49117683359697
C           -2.70784051662871        1.21973200948506       -0.30410763694566
N           -4.11409128385943        1.26847116177591       -0.28574846677236
C           -4.87311432603053        2.24490374365675       -1.09978471771522
C           -5.44880013463130        3.36882207171501       -0.23331677591925
C           -6.30601275431986        2.78828027218165        0.90308071303025
C           -5.50611494393851        1.76109252453331        1.72201977419937
C           -4.91230874276638        0.67383414782214        0.81890651187713
C           -1.99720719517423       -0.01315968223654       -0.09167926465109
C           -2.65136936156927       -1.25438895232786       -0.04010818556235
C           -1.95407899496324       -2.41403497391337        0.16987156824772
C           -0.57437153274361       -2.38737144868917        0.31918135225930
C            0.11967099048798       -1.20292464515789        0.23375452111401
C           -0.58406921026993        0.00789044397929        0.00923980057582
H            3.21248358811005        0.06092794740952        0.27806262039248
H           -0.03968111403358        3.30662908833717       -0.53161527282384
H           -2.48489663296444        3.31198212093950       -0.65721306040086
H           -5.67916861299516        1.70216458450442       -1.60308217030196
H           -4.22519563428214        2.62880736155960       -1.89450704822683
H           -6.03065348940085        4.07233793740395       -0.84409524595329
H           -4.62826578300926        3.95532229993390        0.19546758800064
H           -7.19447322946092        2.30454386554066        0.47967979168684
H           -6.68720226190426        3.59013736051613        1.55035905408781
H           -6.13414151399555        1.31294228139663        2.50416995204852
H           -4.69341196742836        2.27315124356241        2.25113423405817
H           -5.70357968443405        0.05884640203550        0.38030077460436
H           -4.27116491068181        0.00464718274504        1.40032544184007
H           -3.71204501100866       -1.29438214872992       -0.20984322791760
H           -2.47640832195196       -3.35563397566478        0.21127507678859
H           -0.02531929365307       -3.29825257482952        0.48596499065534
