35
 energy: -6.992862740544 gnorm: 0.000612424687 xtb: 6.5.0 (97a52f5)
O            2.41654674059858       -2.19681257350012        0.50687715054502
C            1.75664544815756       -1.18999197813439        0.31785909591032
N            2.34913662283540        0.05742796784237        0.18535400143793
C            1.67607526178865        1.25262288131225       -0.03157933745020
O            2.27261836445768        2.31105209133910       -0.14502357782657
C            0.21798905025974        1.19100182891492       -0.11803958691408
C           -0.52103145328853        2.33479452486833       -0.35152462701341
C           -1.89687473862320        2.29550991843037       -0.41565187950581
C           -2.60473716582423        1.10642627862405       -0.23657627005365
N           -4.01223744352733        1.11919161639114       -0.18702247378734
C           -4.77813593224050        0.53467606766064        0.93551595845850
C           -6.09504823320026       -0.04689012721922        0.42781706229583
O           -6.84973140874274        0.93434704841920       -0.27267241410376
C           -6.13722097931634        1.48717871498752       -1.37287915698587
C           -4.81174237753550        2.10780724001013       -0.93220318174496
C           -1.85867656987476       -0.11016552653988       -0.05660924231937
C           -2.47915924925026       -1.36819483219171       -0.01442040945407
C           -1.74832277108392       -2.51219911433586        0.16412301014776
C           -0.36764751435174       -2.45143863125459        0.29239635612808
C            0.29299916453249       -1.24748197197843        0.21752129578566
C           -0.44574174822170       -0.05290703834551        0.02315492358503
H            3.35037846849377        0.09954491229878        0.24972387180811
H            0.00351287840047        3.26805362620608       -0.46734033758950
H           -2.44534983151494        3.21025119496027       -0.55317007418876
H           -4.97807608945509        1.33781283497124        1.65108599470456
H           -4.17013875072181       -0.20480302540008        1.46527825026762
H           -6.72314159583162       -0.42011059440399        1.24749531063585
H           -5.92136814890793       -0.88281469851187       -0.25931656111878
H           -6.79655252307744        2.22442602586928       -1.84978535975359
H           -5.97100113254637        0.68042756054578       -2.09648636842026
H           -4.99092746323801        2.96928127804260       -0.28251467478513
H           -4.23438185160883        2.45902685517737       -1.79387347501061
H           -3.54099040882099       -1.43205179211444       -0.16676473632512
H           -2.24516948126449       -3.46793205925559        0.19721674678578
H            0.20879286254358       -3.34961650368908        0.43506471585549
