50
 energy: -11.568537587956 gnorm: 0.000604001278 xtb: 6.5.0 (97a52f5)
O            5.63671423977596        2.27611350617830       -0.02097538422153
C            5.01141694985239        1.23159181958047        0.01766279585623
N            5.64962739331819        0.00299085009097        0.09535587934013
C            5.01331985253630       -1.22801311964377        0.14352347492134
O            5.64030176838570       -2.27025811014573        0.20802720809355
C            3.54780352309165       -1.22586347008030        0.11165514463237
C            2.84677290962257       -2.41016447407895        0.15804817840339
C            1.46755378957734       -2.42201653650110        0.12820676683388
C            0.72589937187649       -1.24563763293524        0.05045163940208
C           -0.72701040631176       -1.24826819831942        0.02001811379797
C           -1.46932563418527       -2.42548693172082        0.07277013249811
C           -2.84891963920091       -2.41502332675659        0.04351845727650
C           -3.55134431343111       -1.23299462420573       -0.04156425762916
C           -2.84448028020888       -0.01408427256434       -0.09906540984248
C           -3.55319897891006        1.20183623655961       -0.18765899731083
C           -2.85257503019435        2.38705464277323       -0.23446937659039
C           -1.47316387123111        2.40342528061242       -0.19885266813125
C           -0.72892498969360        1.22914669315279       -0.11689316910462
C            0.72389730582776        1.23245994270076       -0.08137039267229
C            1.46374138953813        2.41182797404318       -0.12461861981309
C            2.84294521110385        2.40542562112995       -0.09180070040491
C            3.54593993869307        1.22375941005133       -0.01543078371742
C            2.84240955228363       -0.00245042967263        0.03165271308573
C            1.42363271173244       -0.00523147222358       -0.00029782161102
C           -1.42602115030562       -0.01106755430257       -0.06584040228359
C           -5.01768221514218        1.20999729213955       -0.22738716457371
O           -5.60453639920290        2.27366451995627       -0.30209469288640
N           -5.71234245936185       -0.02077473809205       -0.17082954107876
C           -7.14012907718408       -0.02404703574315       -0.21258665421262
C           -7.87782878197678       -1.00576592727323        0.45003777138060
C           -9.25051297952236       -1.01116983426840        0.41267219405423
C           -9.92641197906065       -0.02996245000198       -0.29467919825941
Cl         -11.64790239385812       -0.03120229127012       -0.34199192066698
C           -9.21404235086987        0.95362664742962       -0.96165966386983
C           -7.84161550464682        0.95433337123051       -0.91815657401993
C           -5.01602577806396       -1.24799795735329       -0.07457608474087
O           -5.60058644105418       -2.31445367484988       -0.02519922036099
H            6.65376894054473        0.00481567488057        0.11304445325158
H            3.40125091904656       -3.33189018094310        0.21844166160519
H            0.96620439162676       -3.37129986452309        0.16615181975029
H           -0.96894347192359       -3.37366170447182        0.13899384772680
H           -3.40451898582340       -3.33715476360620        0.08552379167198
H           -3.40945834883367        3.30706715267918       -0.29891447985062
H           -0.97429352222261        3.35392586367152       -0.23736168669852
H            0.96075354667670        3.35908742593720       -0.18552020913156
H            3.39598652669687        3.32941376870458       -0.12578609386272
H           -7.34624605108335       -1.77757275348471        0.97969744490178
H           -9.81582072081073       -1.77323957436349        0.92287659183481
H           -9.75176711512522        1.71262926112505       -1.50529533487373
H           -7.28279136236744        1.72673994876771       -1.41811357789948
