51
 energy: -11.796923414612 gnorm: 0.000435709322 xtb: 6.5.0 (97a52f5)
O            5.64523702201369        2.25663953750227       -0.02525182280319
C            5.01554624835598        1.21471326679658        0.01405690319028
N            5.64866415094633       -0.01640861279627        0.09223937632756
C            5.00737471849111       -1.24467878829200        0.14365125127806
O            5.63024441400029       -2.28926280261730        0.21115214359986
C            3.54203563423065       -1.23663255954613        0.11181417703951
C            2.83590612074331       -2.41805969457443        0.15870954225991
C            1.45681127834577       -2.42428580170874        0.12929197662545
C            0.71996601538311       -1.24473610303425        0.05146650399137
C           -0.73281207356302       -1.24129549982246        0.02148891447078
C           -1.48020410667981       -2.41545444593267        0.07381819177927
C           -2.85958931025566       -2.39895926554543        0.04552450909085
C           -3.55735692722234       -1.21387279651821       -0.03779619446814
C           -2.84512976293806        0.00194235794183       -0.09556983135555
C           -3.54836130524561        1.22107600006134       -0.18392892962460
C           -2.84246196262903        2.40322261703653       -0.23224865736742
C           -1.46324024055205        2.41363587383290       -0.19829759786237
C           -0.72421757394582        1.23594739688564       -0.11610757460604
C            0.72837382625201        1.23308539638001       -0.08211166766812
C            1.47302029824558        2.40941579089051       -0.12781900490265
C            2.85199507510221        2.39733273820387       -0.09614897836016
C            3.55023387013854        1.21286862729554       -0.01820095494422
C            2.84172772116581       -0.01037076966758        0.03120557303046
C            1.42290144536911       -0.00735256835558       -0.00007788424850
C           -1.42660889464576       -0.00116899710931       -0.06358842651818
C           -5.01246515453985        1.23593365104040       -0.22192239433599
O           -5.59492161893748        2.30221051485768       -0.29523840012082
N           -5.71252062965797        0.00833532319393       -0.16550913894279
C           -7.13976265545708        0.01228358507942       -0.20999083712057
C           -7.88581854767510       -0.96163588937562        0.45217790143080
C           -9.25588944766454       -0.96260009797111        0.41519517332832
C           -9.94958921604437        0.02061544691923       -0.29761238877302
O          -11.32528321702983        0.05801784642990       -0.36283068142643
C           -9.20462743210351        0.99730956637979       -0.96480210750766
C           -7.83566247071971        0.99044402244560       -0.91836454539265
C           -5.02193437943354       -1.22212966114854       -0.06972171629379
O           -5.61216231486908       -2.28549189684920       -0.02032538024965
H            6.65270526214459       -0.01857936460608        0.11178059422036
H            3.38655234130367       -3.34199614527583        0.21926666095245
H            0.95129084146345       -3.37129550872800        0.16777904901640
H           -0.98358694496232       -3.36562454749274        0.13851899773843
H           -3.41902762876609       -3.31880446691489        0.08711039712933
H           -3.39544136413896        3.32562978071619       -0.29672842506812
H           -0.96008021116250        3.36174067650089       -0.23774396826425
H            0.97371866353698        3.35846339546541       -0.18976841116878
H            3.40878838347915        3.31888464997148       -0.13218404467050
H           -7.35849072059093       -1.73417932693612        0.98511826861072
H           -9.80896356931669       -1.72579184807459        0.93279256950416
H          -11.71742388912974       -0.67642474478908        0.14199017363945
H           -9.73507152929379        1.75689253741308       -1.51176459002448
H           -7.27184823154140        1.75795160444460       -1.42028429416886
