32
 energy: -6.810721031911 gnorm: 0.000689198808 xtb: 6.5.0 (97a52f5)
O            1.48668703487002        0.03662269731775        0.50844521917998
C            2.64032216969395       -0.02279818480191        0.12386470170568
N            3.31878072930623       -1.12508213707910       -0.38543812957468
C            4.63741740785586       -0.79551983667307       -0.67789072856497
C            5.64151220377277       -1.72959420988701       -1.19104844408567
C            5.25496294786773       -2.94525836746508       -1.75105273617404
C            6.19167037917995       -3.82816596860171       -2.24098123205414
C            7.53449916950330       -3.51574961367447       -2.18073689117094
C            7.93746697809706       -2.31718547009850       -1.62779165747664
C            7.00281319433269       -1.43201543586359       -1.13795219869594
C            4.83203606147423        0.53059180290657       -0.37962622403285
C            3.61352967915245        1.08408716149123        0.11080288064934
C            3.33389610677138        2.34467784811189        0.56114405257354
C            4.19112394448298        3.50799247152429        0.51042753569609
C            3.96571596778122        4.56968335865084        1.39525416624836
C            4.75329668306184        5.69703208444469        1.36514939768367
C            5.77745911792205        5.80366950340874        0.44498235820504
C            6.00436843778358        4.77954221808538       -0.45327761335484
C            5.22157470581486        3.64848831391278       -0.42662457307645
H            2.89868087317492       -2.04486830583231       -0.46237549492950
H            4.20916094590554       -3.18804980351888       -1.80992251506266
H            5.87537954432441       -4.76299592551485       -2.67399851700424
H            8.26691155624991       -4.20663344134339       -2.56494013405251
H            8.98607369296765       -2.07330137044679       -1.57875458141412
H            7.32464655965662       -0.50332102231636       -0.70095566734238
H            5.77208490214551        1.04444438878798       -0.44674977416363
H            2.36685743233570        2.48181767107375        1.01352085237162
H            3.16831364342525        4.48965183426797        2.11395395112003
H            4.57004441056640        6.49967496658256        2.06063373407175
H            6.39180182705221        6.68873907602768        0.42142203369609
H            6.79180321936402        4.87118013103473       -1.18343292080886
H            5.36705847411452        2.88632356549429       -1.16995085016780
