31
 energy: -6.672774403775 gnorm: 0.000898647759 xtb: 6.5.0 (97a52f5)
O           -1.84395364290651       -0.22476314140565        0.07219210756745
C           -0.63196210590334       -0.30417124010076       -0.01032641531835
N            0.16284912303691       -1.42082166641542       -0.16574646417253
C            1.48952650382186       -1.00094437267985       -0.20402104823917
C            2.63418010314621       -1.88873803820550       -0.36203322338652
C            3.92690660286287       -1.37355031409668       -0.29703604252762
C            5.02080300880571       -2.19491379829964       -0.44981700171141
C            4.84464339194799       -3.54633408073741       -0.67216891055126
C            3.57013121677850       -4.07389790529317       -0.74010311159458
C            2.47415235994775       -3.25477828368495       -0.58663213446261
N            1.59734198695582        0.30547417081620       -0.08183973791894
C            0.32977789956741        0.81570537479220        0.03881556320984
C           -0.03527823907051        2.12237121532848        0.17187893026041
C            0.86514884272660        3.24278457322855        0.21744096623781
C            0.36322358864356        4.54203992855986        0.34993031672591
C            1.21223719270359        5.62366933785269        0.39778245703793
C            2.57910610561845        5.43930899462267        0.31704112380807
C            3.09605905004494        4.16531541181501        0.18472247006912
C            2.25068898072494        3.08268222081790        0.13586770776578
H           -0.19543322338163       -2.36837805033158       -0.20711550283243
H            4.05616414838201       -0.31935204843716       -0.12299793053003
H            6.01538678492745       -1.78290347227670       -0.39626493457100
H            5.70134653025461       -4.18901029734254       -0.79236950866195
H            3.43318842741161       -5.12861174308052       -0.91594375684347
H            1.48357541662985       -3.66846440089578       -0.64648190864484
H           -1.08726767822185        2.33037314373326        0.24760615812159
H           -0.70130581356110        4.68895236760221        0.41379420122956
H            0.80923519585103        6.61781642604938        0.50138280121488
H            3.24071612750575        6.28912357957254        0.35715685075441
H            4.16228826379744        4.02037477703838        0.12116025130524
H            2.65176385094904        2.09233133145112        0.03343572665661
