30
 energy: -4.838384392440 gnorm: 0.000937119956 xtb: 6.5.0 (97a52f5)
O           -2.72984819892574        1.38569833668024        0.43758385539082
C           -1.67330483843143        0.79554539867125        0.30775212206878
N           -0.43913233130585        1.26385742210755        0.65718116798886
C            0.50323291850260        0.30855864319080        0.41395396580621
C            1.85059333344147        0.31478588812901        0.62963256150257
C            2.54631242585821       -0.76305850719694        0.32884864370781
C            1.97757502469889       -1.85816338584106       -0.17349632156686
C            0.68078143002311       -1.93111031818618       -0.40188741294178
C           -0.09311383243824       -0.85011092164742       -0.11602698314215
C           -1.51108200184228       -0.58507803194291       -0.22563711059864
C           -2.42309386685075       -1.46469443365825       -0.61247511673499
C           -3.82348507412924       -1.34747891886146       -0.85069706170464
O           -4.32180026342082       -0.34824267047646       -1.34266509714283
C           -4.68063020992890       -2.50565631580142       -0.50883820819621
C           -4.16451171942831       -3.65510906823384        0.09575026914755
C           -4.97976367436671       -4.68135672470268        0.38859634188820
C           -6.30730243039580       -4.62104461318951        0.10572640248026
Cl          -7.33847350577320       -5.95104455580053        0.48009451376644
C           -6.81429911110754       -3.50495008109184       -0.48118691138468
C           -6.02935117923900       -2.47783707923189       -0.78151122903674
Cl          -6.11468309557951       -2.02929950517639       -3.04775050469692
H           -4.56355110846287        1.44123358316139       -0.42529973372784
H            2.22634315449968        6.85025276571517        0.59600225003615
H            7.61828334617836        3.53826914120144        0.82928719759292
H            8.02330946650165       -3.08551812908065        0.24012170955064
H            3.71682397171646       -6.12612040324558       -0.60998743618172
H           -3.11643626307285       -3.72071011415164        0.32912229035786
H            1.07472193567660       -2.78949156146210        4.40314326916709
H           -1.68494011859142       -8.38879330979417        3.74886814601992
H          -11.40915420913793       -7.69207250390241       -2.81978556304946
