31
 energy: -6.634384245167 gnorm: 0.000975919771 xtb: 6.5.0 (97a52f5)
O           -3.04661568294592        0.88116071011301        0.23972965939265
C           -1.87189548762466        0.58543041072759        0.14667075762552
N           -0.80013476787383        1.43321229954557        0.40893792754906
C            0.41138855862011        0.75230730644695        0.31088782310626
C            1.71448020651870        1.19110011703819        0.51237515662882
C            2.74476335377905        0.29337200393070        0.35091709726500
C            2.49189328617880       -1.02741056169139       -0.00673008502170
C            1.20367521052172       -1.47290021787336       -0.20967374428212
C            0.15128815233224       -0.58001638069022       -0.04809825163498
C           -1.28734490112880       -0.73314719870035       -0.20558387110387
C           -1.91964179077817       -1.88058651112404       -0.55223824585276
C           -3.34567470862048       -2.02050721396531       -0.86221987380194
O           -3.92940286289428       -1.21430601596511       -1.56709059136542
C           -4.07750998230706       -3.19684036826023       -0.34368692725783
C           -3.52113079534856       -4.06665281913037        0.59291322535186
C           -4.22654102421035       -5.14764706499530        1.05542895906022
C           -5.52521398290639       -5.40196445096658        0.59930205504778
O           -6.26237436714587       -6.47996759370930        1.03648941552925
C           -6.08161472496168       -4.52082207667848       -0.33354061814857
C           -5.37056925594513       -3.44267244053890       -0.79155111391173
H           -0.90691929286424        2.39736789213231        0.69897581812791
H            1.89960891928526        2.21409156683245        0.78767175184282
H            3.76116865091594        0.61767210755438        0.50296980339149
H            3.31614404790080       -1.71078157848101       -0.12828909353500
H            1.00909163005395       -2.49227117855622       -0.49159780323713
H           -1.31461576735652       -2.76422801866053       -0.65955232577561
H           -2.52958853917163       -3.87753792744480        0.96578263947066
H           -3.78480847730541       -5.81128657966433        1.77683292829054
H           -5.75731079508375       -7.00087893853281        1.68738737240147
H           -7.08101218524937       -4.71100917508773       -0.68268034916427
H           -5.80271262438456       -2.76412010360457       -1.50750949598933
