32
 energy: -6.943739322439 gnorm: 0.000541929238 xtb: 6.5.0 (97a52f5)
O           -3.00452665399144        1.05309779070794        0.26086508579673
C           -1.84839017928752        0.69904022836041        0.15187727674691
N           -0.73667166964601        1.50957590583876        0.35181133719424
C            0.44136498271692        0.77292453329962        0.25886981427425
C            1.76609638025285        1.16122716363095        0.41776633221633
C            2.75215949288696        0.21253896526985        0.27414182889196
C            2.43440166856197       -1.10839889873517       -0.02505514267006
C            1.12446265327401       -1.50453249502464       -0.18448493950248
C            0.11589078619979       -0.55964571093637       -0.03924567021490
C           -1.33129796573070       -0.65754039300198       -0.15677251035508
C           -2.01456495822031       -1.79369197163810       -0.43886936084669
C           -3.44770108774134       -1.90647993269001       -0.70249884501851
O           -4.06330035911130       -1.05411562206852       -1.31595148997640
C           -4.15893877323240       -3.12898284366836       -0.25223411537124
C           -5.38903384828673       -3.44197528786167       -0.81481948686090
C           -6.07638056953514       -4.56546753365795       -0.41996838113430
C           -5.54963106154662       -5.39659165675596        0.54947606482114
N           -6.28153838045584       -6.59190162319831        0.97096270109824
O           -7.37205651023449       -6.83720906887440        0.44104469051474
O           -5.78396943097671       -7.31525190712816        1.84239332089276
C           -4.33172668169443       -5.08890286914451        1.12443593754755
C           -3.64168860250859       -3.96620979719229        0.73180151572574
H           -0.79666645346823        2.48555307406562        0.61496681242673
H            2.00173588579340        2.18521968677635        0.64815117291497
H            3.78514129071247        0.49662956061689        0.39432379776878
H            3.22510578309404       -1.83281643652777       -0.13466268761101
H            0.88055371000176       -2.52546168464735       -0.41974690992228
H           -1.44400987309858       -2.70272442876573       -0.52043287175367
H           -5.79475925701817       -2.78379873367642       -1.56535928895969
H           -7.03030238158995       -4.81294846950309       -0.85558080720370
H           -3.93737064228239       -5.74132687108258        1.88603000024002
H           -2.70276729383488       -3.72263267278514        1.19852481833126
