24
 energy: -5.079668880443 gnorm: 0.000883982407 xtb: 6.5.0 (97a52f5)
O           -1.44499879310649        2.28731359267384       -0.72690702403075
C           -1.13247620533545        1.13839567334504       -0.48359462984611
O           -1.96062971632028        0.04177235563638       -0.38121771829636
C           -1.18950806679969       -1.07565562594841       -0.08388251959215
C           -1.65347882581440       -2.34404402249112        0.10079043893283
C           -3.02625061533549       -2.69760145903370        0.01466411816242
C           -4.07059108507084       -1.85623246647481       -0.25898955488448
C           -5.33448613529097       -2.49667709574412       -0.28007912304522
C           -5.26843113747421       -3.82275811376472       -0.02373908935595
S           -3.63516909640762       -4.31669583055286        0.25047869828418
C            0.21092827389498       -0.67190490419593        0.00028210541858
C            1.38314187063881       -1.37490617991899        0.25394700027474
C            2.57674881435720       -0.68633882786079        0.25388831803100
C            2.61229651801306        0.68151684576872        0.00497628041820
C            1.45235529833609        1.38210627577218       -0.24624252186341
C            0.25275105562250        0.69130629995862       -0.24374626232282
H           -0.95129931995177       -3.12553961117667        0.32443092595693
H           -3.92880897643378       -0.80251932686451       -0.44153828415897
H           -6.25840423705202       -1.97357407185317       -0.47945974796231
H           -6.10611290623448       -4.49364557501047        0.00903113980718
H            1.35063081199621       -2.43305909381410        0.44360275323817
H            3.49513940676062       -1.21466702975412        0.44958432305244
H            3.55714266610747        1.19954613757394        0.00927119585773
H            1.46150040089975        2.44025205372974       -0.44139082207469
