34
 energy: -7.415933852566 gnorm: 0.000811927893 xtb: 6.5.0 (97a52f5)
O            3.59636598102029        2.17900102076045       -2.71198949722406
C            3.48333179125142        1.95708205252823       -1.52596574312223
O            2.78415470201728        0.92937163723895       -0.92672180671452
C            2.91009902807280        1.04469546119956        0.44063717620235
O            2.43636868030913        0.33053092392696        1.29840774711802
C            3.74531800465038        2.22386492407884        0.71020411988432
C            4.09488416641135        2.77388176390330       -0.46790549464194
S            5.11038482851387        4.20004197691934       -0.30997433502429
C            5.13381203359151        4.10713550516189        1.50227329505223
C            4.28172490546319        2.89869803562787        1.88124043756893
C            4.16993088807611        2.65067831517710        3.19286601807135
C            4.93585710105920        3.65289702550346        4.03977286252936
C            4.40866715916607        5.03270540790319        3.63841449613058
C            3.87706787866727        5.99371649941561        4.47608126167931
C            3.45348808504706        7.19591194766586        3.94678878003752
C            3.55816464496051        7.44119957325710        2.59073074324992
C            4.08838084624873        6.48721164107682        1.74669772842675
C            4.51496334376973        5.28189402891973        2.26735344250739
C            6.38109439795545        3.60863516168758        3.53756465776739
C            7.51381863155177        3.36314643364704        4.28899423381473
C            8.74932792998620        3.36338788451572        3.67382274480361
C            8.85782198944147        3.60695275885572        2.31775498121353
C            7.73177940981976        3.85331050628103        1.55955520467215
C            6.49176271653907        3.85535180007536        2.16639226590287
H            3.60020485899603        1.82804209259290        3.58537090811286
H            4.85547965281993        3.46514364732731        5.11938650876552
H            3.79974373120237        5.79746240169691        5.53136740582258
H            3.03883656362370        7.94907267264935        4.59648973103753
H            3.22453247245916        8.38424186298606        2.18932119889382
H            4.17465642003429        6.66912005855011        0.68990499114849
H            7.42283594108493        3.17494151210312        5.34463273978198
H            9.63590765134197        3.17223700540971        4.25584790239071
H            9.82813339112161        3.60413084054741        1.84846089226824
H            7.80600017372868        4.04316562081067        0.50325240187693
