52
 energy: -10.904774886658 gnorm: 0.000910263274 xtb: 6.5.0 (97a52f5)
O            4.53784790265212        3.35822280081065        1.84858516312404
C            4.57379421625461        2.15273759391457        1.80144280637647
O            4.04386563860492        1.33972617558069        0.82369083802417
C            4.26069662552487        0.00188835377055        1.07122636040157
O            3.91155054864438       -0.93192016357617        0.39071755665615
C            5.03600678097536       -0.16038084503409        2.36069546981898
C            5.24999978896003        1.30600321891823        2.85748999180776
C            6.81689227896892        1.44606569952405        2.87941466638152
C            7.24207419336654        0.59935384979553        1.62588609389815
C            6.50566376571552       -0.68180026809639        2.16019538297686
C            7.12680995457425       -0.78568819105044        3.55429251715385
C            7.31865866704511        0.53706585081282        4.00194228764615
C            7.85534288377823        0.82292114930606        5.24063349632265
C            8.05792004500104        2.22719738243472        5.66785791944230
C            9.33778279944218        2.72105821782526        5.91637804482170
C            9.52348878672274        4.02800667509605        6.30744801069077
C            8.43825852900259        4.86800916693861        6.45418809795523
C            7.16447670763348        4.39788097627531        6.20693490349563
C            6.97428485899288        3.09111482797606        5.81743476081363
C            8.20640391954418       -0.28615363290128        6.07876213021068
C            8.73741078125735       -0.08376127622362        7.37085794195451
C            9.07504949357681       -1.13507603662998        8.16795062743087
C            8.89989951152884       -2.44530983265199        7.71772619113317
C            8.38102613808883       -2.68229002815673        6.48116173370344
C            8.01001275308234       -1.62085407527891        5.62814348508665
C            7.45168091628000       -1.87709064551227        4.33316883229951
C            7.21673987987925       -3.25468646813672        3.83940974334058
C            7.95230126305874       -3.76316060281561        2.77025490634899
C            7.73369438158998       -5.04336068276660        2.31294470481729
C            6.77719030978696       -5.83860618767182        2.91108061238934
C            6.03767271350588       -5.35002347140693        3.96914213583428
C            6.25300404407949       -4.07059293689983        4.42993128057988
H            4.48350693803545       -0.77671002946789        3.08123074949767
H            4.81205970511699        1.48463001441727        3.84725464045297
H            7.19651825609449        2.47879551982848        2.90751745706040
H            8.32544563444102        0.46914883764447        1.54261777008113
H            6.82376080082280        0.97907597853870        0.68866018136815
H            6.60043077394795       -1.58167509267217        1.53392671656227
H           10.18256863174901        2.06603799778650        5.79007255620497
H           10.51799211697142        4.39662702688337        6.49778872827486
H            8.58531562276161        5.89073222393022        6.76030896259382
H            6.31743261880394        5.05448956907216        6.31969165003689
H            5.98173773421394        2.72000878582776        5.63087424883456
H            8.86877361081765        0.92270395234158        7.72629440332476
H            9.48020176622248       -0.95894578046255        9.15085849958526
H            9.17511168857772       -3.26984829549585        8.35460416670082
H            8.24892697384866       -3.69325147224833        6.13859959224139
H            8.70109180820592       -3.14136761786150        2.31077279632601
H            8.31114270016006       -5.42607752837117        1.48752815030913
H            6.60789363141487       -6.84052570353262        2.55215878711334
H            5.28966772330126       -5.97085916685932        4.43420900140075
H            5.67488018736994       -3.68303581346788        5.25103224909065
