60
 energy: -13.654053986662 gnorm: 0.000756448584 xtb: 6.5.0 (97a52f5)
O            6.73637933444817        1.79286972944983       -1.75831575842864
C            6.10610750835602        1.76440912223942       -0.71836760633784
O            4.92481696638206        1.05932883880735       -0.60200973888282
C            4.22436163875439        1.02928285187639        0.58593300103726
O            3.17494694140489        0.42654894994881        0.70270758404549
C            4.74835028439907        1.74455695564130        1.75647895809231
C            4.07060685887601        1.71399375435511        2.94297381687404
C            4.53052032462661        2.38423360872598        4.08390303415680
O            3.78416853185451        2.32700073346133        5.25394052540981
C            2.80256496227253        1.32647837409552        5.40931658195909
C            1.51127145855945        1.68182735179337        5.79706163180192
C            0.53702257198278        0.72419966995555        5.94772741520056
C            0.83224995317399       -0.60586736226733        5.72467145062922
C            2.11028929946452       -0.97634284291000        5.35675378396849
C            3.08878185472182       -0.02330933037183        5.20387565505717
C            5.73294385421021        3.13975168542927        4.01561608032020
C            6.25893592385544        3.85847811188240        5.15041905392050
C            5.63034301420672        3.84555609871605        6.39690515798495
C            6.12606573922836        4.53567157983227        7.47688372317719
C            7.28235497323132        5.28203259445760        7.36782403752282
C            7.95459871492498        5.32622270416781        6.13844500280903
C            9.13055920573250        6.09373936052152        6.02993797262992
C            9.79325009234995        6.14666525646127        4.83567184849870
C            9.34858589325593        5.45241917370513        3.70311693278305
O           10.05716266530066        5.56466638603151        2.51363175824262
C           11.38666864744056        6.03381602039683        2.53183313551646
C           12.35000956988961        5.48099838858647        3.37584186808297
C           13.63749502495141        5.96212395016155        3.37596618997503
C           13.99302641216995        6.99464051296338        2.53126523924305
C           13.05550358501598        7.54074369906295        1.67762885329480
C           11.76646325071438        7.06396579420478        1.67247789852477
C            8.16184756264111        4.67339809372215        3.78021314805029
C            7.64739640401770        3.93735610572663        2.65133357018628
C            8.29065869663787        3.92821446789538        1.41232449965239
C            7.79954486363490        3.23197359233151        0.33420859987638
C            6.63025001725029        2.50525705340522        0.43649238286457
C            5.94591979034991        2.47935736893242        1.65972634808177
C            6.44270643460715        3.18773989576801        2.78516205297513
C            7.45884110413356        4.61542734175963        5.01404861551346
C            9.63397103965826        6.84075250471306        7.18973043015163
O           10.64456484354739        7.50263052409824        7.05260465256460
O            8.95777494739919        6.77417624323996        8.39010640005926
C            7.80633554705048        6.02406188398836        8.52205053331043
O            7.20218472930202        5.95635900473259        9.57561827977885
H            3.14378398769149        1.17189442930752        2.98581543570510
H            1.29406136992666        2.72225355262290        5.96408620813875
H           -0.46040496675480        1.01254982329611        6.23858774046072
H            0.06610244597360       -1.35507298543279        5.84141585276270
H            2.34192461608887       -2.01618654302519        5.19058917741828
H            4.09163897558752       -0.30526880888576        4.93502889127677
H            4.72710293116394        3.27887859321049        6.51785315281214
H            5.61925529204413        4.50916683456472        8.42752213780429
H           10.67214504471740        6.76138249897273        4.76818201265918
H           12.06896886933602        4.66419509024417        4.01716759945442
H           14.37211547619108        5.53091851516075        4.03697716009888
H           15.00267496599858        7.37208487540934        2.53580495379511
H           13.33494556120055        8.34375030484009        1.01457090035078
H           11.02474425677604        7.48251927378387        1.01501680216464
H            9.20130216408568        4.48357424779160        1.29469297506547
H            8.31774797397269        3.24242449644593       -0.61056560015039
