55
 energy: -12.248006226927 gnorm: 0.000468242071 xtb: 6.5.0 (97a52f5)
O           -2.30302689787224       -2.31462326801657        0.61825273462538
C           -1.73567778606488       -1.33244817219113        0.17618406428404
O           -2.41191582844418       -0.35745754247668       -0.53697577297801
C           -1.75998089560496        0.75440042767139       -1.04433584699734
O           -2.35325221790671        1.61620748125963       -1.66892027228647
C           -0.31474680411398        0.90878578752494       -0.83032012823245
C            0.35803888777888        2.00738774432204       -1.31995242587933
C            1.71846724581222        2.15554259432626       -1.12647137145715
C            2.46327226174342        1.21091899008116       -0.43795849582505
N            3.87964717484471        1.37075257592589       -0.32688217249236
C            4.40928529362539        2.70564682460969       -0.20041835509795
C            5.57749189452476        3.06710014651603       -0.86263607886230
C            6.09998871190536        4.33258295593637       -0.72159198922731
C            5.46505728816386        5.25718958872011        0.08353172256233
C            4.30539401445562        4.91179550261811        0.74837852406140
C            3.78139045061896        3.64668651977950        0.60922659557533
C            4.79009513946413        0.27278577743200       -0.45412235043403
C            5.78588790533400        0.04929271191020        0.53510857259160
C            5.90585619878725        0.88319715361965        1.66772739630312
C            6.84551877111693        0.64765646901270        2.62395930464220
C            7.71812994677194       -0.44246752722642        2.50711579339913
C            7.62973200249728       -1.28187973540192        1.44164234506849
C            6.65893570235130       -1.07100260197983        0.42874239003011
C            6.53117914834156       -1.94523138502383       -0.64915592263900
C            5.56523089859286       -1.74755190591124       -1.63429858835545
C            5.43762687916425       -2.63537121126954       -2.73349022841339
C            4.50640841801647       -2.41862683711400       -3.69960098176145
C            3.65693987514386       -1.30665559914591       -3.62706235366090
C            3.74795324164843       -0.43724786224273       -2.58369384927936
C            4.68759304759422       -0.62881993565117       -1.54765415131736
C            1.78752761743209        0.07215278686670        0.10818552826597
C            2.44122728067261       -0.90270230755448        0.88094712987424
C            1.76313850870789       -1.97748622017485        1.38358122001708
C            0.40168095111010       -2.12315672632640        1.14563704843663
C           -0.28890709630030       -1.18718996903575        0.41356302996277
C            0.39574846401540       -0.07037246526999       -0.10817476585261
H           -0.19805348918881        2.75018260630762       -1.86573751216380
H            2.22572507836653        3.00830808161563       -1.54194207671534
H            6.06649332251547        2.34046320842186       -1.48732758775838
H            7.00626298621430        4.60108195912863       -1.23887004393586
H            5.87473417982626        6.24780008151896        0.19420678555501
H            3.81060691893054        5.63283832236632        1.37789393645174
H            2.88419795148760        3.36713078986360        1.13335087792648
H            5.23586466415121        1.71652676296358        1.76884629334318
H            6.92171871479550        1.30181731912262        3.47681728950370
H            8.45899751243633       -0.61550493532202        3.27022592792134
H            8.29454661618244       -2.12398711555100        1.35771741307628
H            7.18936018553472       -2.79175228352598       -0.72047159439685
H            6.09330639284689       -3.48663680900357       -2.79350759491323
H            4.42077203742323       -3.10074376608571       -4.52936773882849
H            2.92857574560375       -1.14139855348818       -4.40378946911393
H            3.09768104555537        0.41616422191999       -2.54011065232772
H            3.48918630198610       -0.79161159656103        1.08406334241424
H            2.28501402841597       -2.71622425094587        1.96944904301515
H           -0.13351588702605       -2.96992480885711        1.53994606231038
