33
 energy: -7.057577767677 gnorm: 0.000895443109 xtb: 6.5.0 (97a52f5)
O            1.51464256829846        0.13144856076502        0.25695707982601
C            2.68212229972754        0.01133185839307       -0.05858414200330
O            3.31565173926991       -1.10718769529767       -0.53999176960539
C            4.64330805147305       -0.78118528061446       -0.74339227633743
C            5.61814786435785       -1.75311394626386       -1.24172387555386
C            5.18714724318656       -3.03821739530997       -1.54782344727762
C            6.06827763494744       -3.98356863922429       -2.02116874178881
C            7.39762900803136       -3.66005831045370       -2.19645485769479
C            7.84189232964342       -2.38861539143406       -1.89730041809230
C            6.96250443779115       -1.44089145262339       -1.42422738723116
C            4.89126215417891        0.52631934237625       -0.41449137432861
C            3.67468055821470        1.10052534846877        0.01693555109117
C            3.38535362005983        2.36274033248219        0.45966407411448
C            4.25328774527680        3.51422171706111        0.46257764109903
C            3.98358123840427        4.57993617738961        1.33199286651314
C            4.78169736471775        5.69604644039419        1.34910336970061
C            5.86397731397451        5.79575423528584        0.49430389000854
N            6.70465518869627        6.99146025362114        0.50763537417474
O            6.43134337086211        7.90036788044698        1.30320741933600
O            7.66056893261059        7.05466236937321       -0.27755853542088
C            6.13251907696795        4.76550337691752       -0.38828391583943
C            5.34169161125078        3.64392531863669       -0.40991633754340
H            4.14684252627251       -3.27858794364630       -1.40698197761477
H            5.71947858448368       -4.97613705727931       -2.25511304961852
H            8.08858003104621       -4.39989226284793       -2.56659796085836
H            8.88076672052145       -2.13657352195134       -2.03484203997785
H            7.31584335457292       -0.45165142924010       -1.19367845197897
H            5.85338854177406        1.00154592299344       -0.41903278281816
H            2.39428803603711        2.50611460827844        0.85590958645162
H            3.14337357726821        4.50990843314872        2.00151805923483
H            4.57800285273518        6.51048473708846        2.02390511982770
H            6.96531833798533        4.86682727059108       -1.06392925097559
H            5.52422608536173        2.88214614247693       -1.14559743881221
