31
 energy: -6.582343462990 gnorm: 0.000507123882 xtb: 6.5.0 (97a52f5)
O            1.46161460688115        0.09258206686352        0.08344890549489
C            2.63662530913888       -0.00577259108421       -0.21462140251455
O            3.29880574195655       -1.11313282182891       -0.69254854890164
C            4.62600977260121       -0.76215070404230       -0.87130914310593
C            5.63373278364374       -1.70657729658699       -1.35842324886718
C            5.24663089154587       -3.00283496332181       -1.67709469748118
C            6.16385877156393       -3.91935524478987       -2.14055246681325
C            7.48586547091325       -3.55508047655296       -2.29342355605424
C            7.88688123526376       -2.27196776689193       -1.98147447887897
C            6.97123429131640       -1.35353184367857       -1.51789004965107
C            4.84534622810108        0.54695217291315       -0.53168390345998
C            3.61183206626249        1.09993034958667       -0.11583374234358
C            3.30480501426027        2.35194276434168        0.33641521208968
C            4.17133542923890        3.50928120584782        0.37532216303297
C            3.88589843001508        4.55503034928941        1.26063728862455
C            4.68138852787598        5.67579217771787        1.31324424794639
C            5.77433355375482        5.79070292691594        0.47770622090765
C            6.06259570996759        4.78215430676886       -0.41994157079525
C            5.27137126295897        3.65826254337361       -0.47628327624837
H            4.21276530791665       -3.27651087720153       -1.55456619227708
H            5.84898147518387       -4.92054083981035       -2.38452506347217
H            8.20431061308385       -4.27174691725933       -2.65612417047742
H            8.91951599353285       -1.98807497242649       -2.10084842990481
H            7.29045775664539       -0.35551101679313       -1.27643619380438
H            5.79893240554449        1.03815919888647       -0.52083256348245
H            2.30557273358789        2.48784124403148        0.71286049077840
H            3.03474320216939        4.46819200102751        1.91387542065350
H            4.45051338015870        6.46713665805706        2.00741996035629
H            6.39579965345623        6.67000470653240        0.51959238774178
H            6.90494224232280        4.88056460876679       -1.08493181415134
H            5.46701013913478        2.91036905133730       -1.22259778493971
