88
 energy: -19.370534303390 gnorm: 0.000694607392 xtb: 6.5.0 (97a52f5)
O           -0.12712905415669       -0.39070984262390       -1.55325395406364
C            0.76607071799526       -0.11794259742711       -0.77261246894304
O            0.91855540192366        0.98499250049200        0.01363988744911
C            2.09871279032997        0.79181698489007        0.70185640370707
C            2.61514573577735        1.76358603862288        1.65835263988874
C            3.80931965755977        1.53527756568022        2.33460038618232
C            4.28684731216485        2.45746703713591        3.23724950058528
C            3.58056944232200        3.61953295153236        3.47805396981239
C            2.39393116559226        3.85801511894971        2.81308555518651
C            1.91368640379708        2.93766275485677        1.90982561704084
N            2.70965694117569       -0.33516885306708        0.42205772195063
C            1.93806935142132       -0.97463389555217       -0.49825820728598
C            2.15745003957763       -2.19096968671902       -1.08263240757796
C            3.28202929254694       -3.03703259415097       -0.83464892316050
C            3.39485858718982       -4.27427096794871       -1.48544366777219
C            4.46897318914058       -5.09286341234021       -1.25856034288764
C            5.48451961814245       -4.72073228568868       -0.37372067718623
N            6.60722251002752       -5.57510206610043       -0.14438925952106
C            7.11487521606317       -6.39081352249698       -1.20474767617076
C            7.61672908109076       -7.66923581946098       -0.94642455265383
C            8.11825826581675       -8.44761165548143       -1.95512372905697
C            8.14619726153076       -7.98212099320367       -3.27788745211821
C            8.68617981231125       -8.79943474199390       -4.31817207619073
C            8.78471151466725       -8.44413986751839       -5.63463776412935
N            8.40094792855592       -7.27801454946691       -6.22118200012293
C            8.69501600081856       -7.38780867643739       -7.49541627117505
C            8.43589781806707       -6.33367916897224       -8.46888359744974
C            7.84894833463323       -5.13295926378604       -8.08274806554179
C            7.60913184247265       -4.14387292107526       -9.00879069618551
C            7.95124862129378       -4.33828901091480      -10.33249138900328
C            8.53520896685142       -5.52536525825189      -10.72840454917374
C            8.77602384043432       -6.51656960013696       -9.80474763236520
O            9.27442138955870       -8.59053921140215       -7.84385678035552
C            9.35622291485723       -9.30803711415997       -6.68789540522760
O            9.79825533139292      -10.42758920382130       -6.50672205370318
C            7.63745567722057       -6.70167638516572       -3.52969520439908
C            7.13370247407572       -5.92592262700903       -2.52195694296723
C            7.23987033992552       -5.60544071474317        1.13786149862276
C            8.62042278875171       -5.77997807335354        1.25026973177831
C            9.22939568986161       -5.81161387797109        2.47593597677070
C            8.49152845499077       -5.67173368059975        3.66274322201565
C            9.19347683246796       -5.72301434331108        4.91360612199556
C            8.77161910372315       -5.62228086497767        6.21779570881765
N            9.65493592563791       -5.72152813340604        7.25254869872045
C            8.96988173958742       -5.58810247127806        8.36123092765209
C            9.57284637837223       -5.63701844213147        9.68801110035361
C           10.94025741506156       -5.83937427001455        9.84555449245598
C           11.49870715708827       -5.88468771017962       11.10231593046529
C           10.70209698483572       -5.72859352071496       12.21937932008210
C            9.34339323649141       -5.52749070719259       12.07652092339778
C            8.78172489036555       -5.48191265339829       10.82106649069063
O            7.62167381980564       -5.39591198548167        8.16940088100478
C            7.42922135920364       -5.40874715064859        6.81914511633896
O            6.37314274064817       -5.27405506145655        6.23216165734880
C            7.10802435263493       -5.49678269138541        3.53652145037974
C            6.49821902934320       -5.46445954722188        2.31196422778923
C            5.37651405437822       -3.48884733961346        0.27589035286236
C            4.30330064893376       -2.67123806864879        0.05121087819121
H            4.35229910794989        0.62686667812096        2.13993320145440
H            5.21278092110005        2.27283654882287        3.75696672575436
H            3.95504926260919        4.34086042640457        4.18570522539519
H            1.84310009058401        4.76500274578262        3.00155944477647
H            0.98943190196156        3.11128124127047        1.38554543114856
H            1.42063145102303       -2.53524795778425       -1.78572290393618
H            2.62123719208708       -4.57770200676550       -2.16951288818273
H            4.53598522241294       -6.04670221225737       -1.75160663391032
H            7.59052966282586       -8.04071364338161        0.06293952920615
H            8.49982980069489       -9.43044217077781       -1.73831228598972
H            9.05250675500260       -9.77283758573295       -4.04602443296571
H            7.58657573415288       -4.99110280703302       -7.04890983837462
H            7.15313823858488       -3.21741675376841       -8.70034701506049
H            7.76306401425455       -3.56272961369402      -11.05667101760040
H            8.80291258434670       -5.67584467934677      -11.76143389100052
H            9.23171302079114       -7.44616391993876      -10.10023036290527
H            7.65318489275258       -6.33041326775070       -4.53667890832577
H            6.76508535046271       -4.93663308786487       -2.72878220037322
H            9.20482599733034       -5.87320053188091        0.35177763058011
H           10.29584675163935       -5.94495791642936        2.53712559964547
H           10.25499275272096       -5.87430189868307        4.81683860003532
H           11.55244854403459       -5.95939337034802        8.96896881365788
H           12.55894981836579       -6.04269670829916       11.21420657857691
H           11.14072376487019       -5.76379575190523       13.20309017296396
H            8.72179358254315       -5.40788593210594       12.94871151793250
H            7.72356040640911       -5.32680783394022       10.69685881901092
H            6.51732578589440       -5.38885576182643        4.42342995634409
H            5.43114405738028       -5.34747275985997        2.23993153918859
H            6.16224021010771       -3.18277937885873        0.94389781785445
H            4.23326878911056       -1.72664394213428        0.55602313200216
