47
 energy: -9.077352113340 gnorm: 0.000636100646 xtb: 6.5.0 (97a52f5)
O            0.93845354827115       -0.17866496599154       -0.24445546848276
C            2.14916437428795       -0.23449575005378       -0.09831241147666
O            2.94268296076977       -1.36032716499694       -0.21524920264551
C            4.28282751704189       -0.93935576601399        0.03826715818361
C            4.25305856325000        0.52835106019009        0.31745217249286
C            2.97232711335107        0.92892668065225        0.23313218446442
C            2.53116323773233        2.32093528982020        0.56850437868918
C            1.80012775539057        2.34176588787895        1.89375880628950
C            2.48212268489534        2.02989080891370        3.05799668619494
C            1.83841899975766        2.03680722356552        4.27672364433755
C            0.49849520511815        2.35535791639050        4.34409290378292
C           -0.19343476379215        2.66525547682351        3.19170056973035
C            0.45317264024466        2.65766374723163        1.97306512222309
C            3.70984982240108        3.28112798744013        0.59125033403772
C            3.46290424311243        4.64367638700284        0.60427285053727
C            4.51037367398744        5.53884614594834        0.69329715955406
C            5.81915057095351        5.07446978215987        0.77764800415006
C            6.08175471585874        3.72272129179700        0.76594605465459
C            5.03619974247821        2.80356489409111        0.66714234315863
N            5.29408179128327        1.40246428366259        0.60741882943573
C            6.63635344061943        0.86076481990347        0.87435900212262
C            6.96577199141254        0.87239370689040        2.35901268157380
O            8.28134421426663        0.44108895970451        2.64825804196213
C            6.78976499744525        6.22209980515369        0.87500633637532
C            5.94320203772563        7.51626327751278        0.80731722124083
C            4.47109811295211        7.04375184874931        0.72970606503055
H            4.89422697616271       -1.16818664459586       -0.84404804497394
H            4.66933693316825       -1.50365285729537        0.89652591067641
H            1.83896120096654        2.65091505014493       -0.21977848111491
H            3.52665737928428        1.77923954056981        2.99336977347386
H            2.38171968546166        1.79205485067791        5.17464403975480
H           -0.00787002723071        2.35976732939767        5.29543510493425
H           -1.24128574631663        2.91160702009401        3.24322662594487
H           -0.08794701587345        2.89092651294130        1.07226685521827
H            2.45263550400533        5.00771252813833        0.56009240853237
H            7.10082884468275        3.39303329140557        0.83099611574964
H            7.37662279327523        1.42968413881234        0.30816073790477
H            6.69374432476171       -0.15774995280861        0.48442689485068
H            6.25287160012388        0.25459658883042        2.91990691334571
H            6.86494227747661        1.88698171235631        2.76181131310028
H            8.43158293239150       -0.45969263944750        2.29869952402982
H            7.51993880794629        6.16738847146086        0.05940284592186
H            7.35236759388754        6.15371570698827        1.81313011261673
H            6.21139941480843        8.11713695259503       -0.07045693516863
H            6.11477822109249        8.15496622035329        1.68259661695085
H            3.96415381689806        7.42869186885733       -0.16259989302376
H            3.89111529221805        7.37887067609504        1.59727009365609
