47
 energy: -5.159843369749 gnorm: 0.008981736780 xtb: 6.5.0 (97a52f5)
O            2.33439813211730        0.19159598497142        0.25151870597004
C            3.26065060001108       -0.27224102437351        0.89435786990504
O            4.48313602344701       -0.64533750347007        0.41953994631502
B            5.16352223518765       -1.12249577547392        1.62243929002340
O            4.36636685901788       -1.02762780573673        2.78180721482637
C            3.20445506857338       -0.51522478311095        2.37653154198682
O            2.08844299668053       -0.21951689471888        3.08546376439839
O            3.65482271301145        2.06412915758575       -2.00251288246195
C            4.42888817240099        1.56669196723460       -2.83737677152776
C            4.83463030574147        1.96360957761761       -4.04605089101375
C            5.68833348345404        1.32293277170548       -4.82179159536542
C            6.13561819304686        1.67955300390637       -6.04491392007474
C            5.74974149409579        2.78986139412594       -6.68658758562775
C            8.60328329317846        4.60728017154463       -5.58012553573738
C            7.79516208007189        5.22889829968594       -4.81226037893523
C            7.38249428717741        4.90723116749565       -3.59413099837509
C            7.65956159435677        3.87954821468883       -2.80823771402840
C            8.44732121847008        2.84087925343278       -3.03168103126390
C            8.66108695432371        1.85506388527396       -2.22340402990076
C            7.62279265349140       -3.41263596541096       -4.25002487831792
C            6.31455817152186       -3.42668839051301       -4.40935932491849
C            5.64377734848726       -3.33534249053534       -3.18853346889442
C            6.47585070113348       -2.73643375989538       -2.27837577133228
C            8.52500469021702       -6.10908481098926       -4.59241429666546
C            7.57365062643154       -7.02541373593139       -4.15892454452931
C            7.36200883049042       -7.06790464417300       -2.81984228803816
C            6.25213156914150      -10.06510769230531       -1.69595575541174
C            5.47424646568649       -9.92916125208968       -3.75076404247380
C            2.67619416038709       -6.97011133651969       -0.59283270931949
C            5.72040284456527       -5.21532756659666       -0.65275377013005
C            4.45146892924585       -6.06476962453320       -5.11270928984178
O            5.70639833267339       -1.86120820934360       -1.00912802142464
H            6.84816691233821        1.02371207354745       -6.51998621766672
H            6.10396443845051        3.08101082616551       -7.63198041118559
H            7.15187158050006        4.15680353962878      -12.11208827415410
H            9.92125501689220        8.07747282342035       -8.36242217952258
H           10.41310892051907        8.04095646847027       -2.22132195802899
H            8.70784795584037        5.35944644916249        1.41514605266605
H            5.37072270882157        1.50589562126120        0.73122233292375
H            8.84091503474010       -2.71766788782658       -5.31544147985458
H            7.33096630722933       -2.83085221192328       -2.67306565431020
H            8.24547185759286       -5.10974919753750       -4.39832374056870
H            9.82590615556830      -11.70381101265832       -4.65639611558434
H            6.08770129082692      -14.50713493644031       -3.87378102158820
H            1.76040561495449      -11.34540169021098       -1.20628869935386
H           -1.93361674690277       -6.38086264830419       -0.71910645316185
H            2.01291195019852       -1.34024980778803       -1.32801289088921
