75
 energy: -16.108863767918 gnorm: 0.000398423722 xtb: 6.5.0 (97a52f5)
O            2.65042097249943        3.45367088898133        0.83705450056168
C            3.16072412798449        2.36094887183169        0.90245023081996
C            3.17354465569892        1.51265713756910        2.15107805641392
C            1.75014400431779        1.00689963217408        2.58595472007326
C            1.48597713402024       -0.15589586885004        1.56253824238070
C            2.79907105646495       -0.91101358556454        1.97900927172559
C            2.59326162924747       -0.99601682560361        3.49201452538820
C            1.94515632929529        0.19757596522763        3.86965769283072
C            1.62894063978917        0.47620774699745        5.18344681823774
C            0.97330005972411        1.75578931402014        5.54362054228914
C           -0.31536819635651        2.04600880702581        5.09801264164363
C           -0.91967799963944        3.23980496451455        5.42379219300748
C           -0.25043143039207        4.16603710834707        6.19842698698690
C            1.02726303981751        3.89629407939917        6.64624021368815
C            1.63552880853513        2.70413114898464        6.32216350320026
C            1.97296389752786       -0.50770261381300        6.16791521851296
C            1.67383024066775       -0.30625611206899        7.53268957591370
C            2.00699385596683       -1.23307587337728        8.47355885012385
C            2.65824429485365       -2.41115619249518        8.10101214905397
C            2.95683868204479       -2.64607949974409        6.79295628556629
C            2.61958746750123       -1.71607251602519        5.78577729883048
C            2.93181283296003       -1.96991983757952        4.40933044556283
C            3.58007293876199       -3.22699443722191        3.96668010979409
C            2.94435955805033       -4.45628745801691        4.13774891015061
C            3.54191146490824       -5.62264504423129        3.71484160584499
C            4.78223550462209       -5.58514571563273        3.11002077767099
C            5.42434969420697       -4.37667136545216        2.92817013318494
C            4.83066816164947       -3.20824909614354        3.35093899777968
C            3.90371690136619        0.18507615955650        1.73929755303315
C            4.27904117737274        0.36998529650089        0.28917046596710
O            4.86107950070412       -0.46241322149377       -0.36441723692621
N            3.82170635844412        1.64370397481227       -0.12181466254687
C            3.98345227585605        2.14448624507861       -1.44188280908688
C            4.73572303870698        1.42494012550676       -2.40492545002607
C            4.90789339471672        1.88407611605581       -3.66713534959403
C            4.32615218437802        3.11447005745220       -4.07867849595944
C            4.47668212426198        3.61235784326559       -5.36860148195859
C            3.88567232953786        4.81670756070778       -5.75311783110233
C            4.02454911119435        5.33729859420942       -7.06723541997791
C            3.43296872902675        6.50936484094620       -7.41583322201317
C            2.66988701486624        7.23297438910570       -6.48079136986414
C            2.51230205774494        6.77280093914975       -5.21304334823156
C            3.11322759140075        5.55153936977208       -4.80403751303104
C            2.96808863270004        5.05511723660163       -3.51028805534398
C            3.55901231046019        3.85187283036923       -3.12787623785914
C            3.41802630734157        3.33395071560362       -1.81976503356716
H            3.68155211096175        2.03390318337682        2.97289715638135
H            0.97355561000790        1.78479121827231        2.63298506187375
H            1.49320676775116        0.17782087069807        0.52030631361669
H            0.57587471824647       -0.72318720258854        1.78108564610301
H            2.97480696587545       -1.87308586229675        1.47457848575571
H           -0.83478880579227        1.31915125710093        4.49763760028736
H           -1.91655389428553        3.45139441109033        5.07341885700062
H           -0.72508604228986        5.09946726764446        6.45295258848820
H            1.55004061767146        4.62048156688786        7.24915559278005
H            2.63477448468480        2.49277590228983        6.66204069510320
H            1.17072312812529        0.59828389591021        7.82515531656956
H            1.77035093198461       -1.05874679304633        9.51034260112244
H            2.92386232061859       -3.13534399813612        8.85357970826575
H            3.46464949591636       -3.55213925540933        6.51386486450634
H            1.97239883127619       -4.48021167085912        4.59979342521342
H            3.03925939000735       -6.56570175305485        3.85387259382006
H            5.24810459283547       -6.49856245856791        2.77832531045773
H            6.39143661585572       -4.34727755097910        2.45361151126721
H            5.33012631901047       -2.26515458667780        3.21318643230853
H            4.79521438308267       -0.00492822158443        2.35045202573661
H            5.17262008105509        0.48988796734040       -2.10843562325068
H            5.48560350215160        1.31941870616140       -4.37812906273225
H            5.05581144840975        3.05736231570736       -6.08389833836152
H            4.60655075985154        4.78644247685494       -7.78549657431936
H            3.54592062154812        6.89181008928245       -8.41693681369519
H            2.20825973292587        8.16019196739991       -6.77789545657046
H            1.92728857027426        7.32835034627514       -4.50063608427907
H            2.38823430700242        5.60885371330971       -2.79466431876440
H            2.85055797037428        3.89224950125769       -1.10140451389981
