114
 energy: -21.382600582380 gnorm: 0.000224396434 xtb: 6.5.0 (97a52f5)
C            3.10450345080055       -6.33677363191514       -1.04925399963231
C            4.32032951661311       -5.48313263555369       -0.63871308469432
C            3.81865112818363       -4.30767020683250        0.22154604377062
C            5.27349625139916       -6.36278673667236        0.19157260803107
C            5.06879538505694       -4.92987820925321       -1.86181506719475
C            4.64360320304144       -5.15828693870724       -3.16717778572750
C            5.30856545656351       -4.60941044452305       -4.23828387238196
C            6.43468969435024       -3.80547614769985       -4.05125013444203
C            7.08535546903637       -3.15771065314949       -5.17279209724163
C            6.63407222724984       -3.18310407044896       -6.50547618131184
S            5.41742071451951       -3.89835456299745       -7.52415775665984
C            6.03608276637599       -3.10092997804781       -8.97114011389255
C            5.47545428296416       -3.31879678284346      -10.29736547843523
C            4.36572534896741       -4.14408404084316      -10.46351256184994
C            3.83823292474558       -4.39025145103740      -11.71137742906769
C            4.39683076383985       -3.82355173405343      -12.85081673086390
C            3.85016204754558       -4.09430648284635      -14.26184784119741
C            2.61024672449393       -5.00960255021796      -14.22945603101979
C            3.45030890669700       -2.76091476019017      -14.92115457418580
C            4.93999906316430       -4.78309275959657      -15.10456667128280
C            5.50127816385897       -2.99682216537535      -12.68582995897120
C            6.03206722331630       -2.74583486675290      -11.43975424748212
C            7.09456952863179       -2.28693406970180       -8.65883917023871
C            7.43760515157229       -2.33068694082406       -7.27914530870635
N            8.37269119580548       -1.78843448800173       -6.42282288654406
C            8.23310643439714       -2.27991693512709       -5.14394088215258
N            9.02502197818433       -2.05445489151105       -4.09206636321189
C            9.97854739516804       -1.15470906830675       -4.34792482867176
C           10.99106600900507       -0.70099615226393       -3.42168667629632
C           11.32198350225662       -1.25504813250319       -2.12396475713894
C           12.34219615260005       -0.70512484662812       -1.34574838106267
C           12.69984950797668       -1.27283022289519       -0.14608576759738
C           12.06205872824695       -2.41220477730496        0.33301316554061
C           12.51706578302277       -3.03871615201015        1.66074156908057
C           13.99453432666880       -3.45873528538073        1.54368452431594
C           12.35928773476166       -2.00797199814666        2.79391703797366
C           11.68577942200887       -4.28620828897238        2.01979558582742
C           11.03819782819827       -2.95500917131563       -0.43693540838559
C           10.67676455388704       -2.38969418141854       -1.63686686181877
C           11.67182559603369        0.35339172688331       -4.05795190102245
S           12.93967399687492        1.51680759242085       -3.79712143393016
C           12.69775330336714        2.26360077297732       -5.37709332057233
C           13.43641104208909        3.43792882300527       -5.81967572321677
C           13.18661349461664        4.05130780020860       -7.04647322642151
C           13.86784015836609        5.18872744840620       -7.42162931889303
C           14.82530661351159        5.76375362439978       -6.59373839914287
C           15.58517160764494        7.04553884276264       -6.97145955432843
C           15.14780614349549        7.58639236184177       -8.34695352648091
C           15.30831389732404        8.13160743494411       -5.91440665706579
C           17.09500678947333        6.74688986931424       -7.02417840662547
C           15.08173690095429        5.14556882943366       -5.37669224439631
C           14.40345486636819        4.00971063631040       -4.99643913716136
C           11.72796132444708        1.59824893137045       -6.08244863679423
C           11.14497394876883        0.52915783025659       -5.34727724212163
N           10.14464520171366       -0.40878446657465       -5.49368424157524
B            9.37017448281297       -0.69029020084185       -6.77713568417236
F           10.23727067591899       -1.14152378184883       -7.76079707055435
F            8.69104935731555        0.45081871950108       -7.17691602571907
C            6.86714587384154       -3.59205333361043       -2.74433776435499
C            6.19902743333540       -4.14151514598252       -1.67642524233264
H            2.58930293706368       -6.72255848639237       -0.17008520848569
H            3.41035477052721       -7.19036364178172       -1.65308000950856
H            2.38593091417827       -5.74803947031234       -1.61844282790875
H            3.26474228890255       -4.66682964258297        1.08822582900367
H            3.15866722561155       -3.66195434151476       -0.35683946015785
H            4.64675261524026       -3.70043323558089        0.58398254337242
H            4.76101413633623       -6.78312144752658        1.05628358841519
H            6.12497884537236       -5.79043345527439        0.55639929360147
H            5.65614636969932       -7.18780076761904       -0.40819453206483
H            3.77360764424696       -5.76352418373950       -3.34917077869077
H            4.95351017002879       -4.77700814008705       -5.23898785717449
H            3.92510072536711       -4.59766835744838       -9.59301724447811
H            2.98302003900060       -5.03644207260529      -11.79718889658749
H            1.80558089422999       -4.55916613528076      -13.64944853058296
H            2.84974477759273       -5.98008087433509      -13.79627608232924
H            2.23275599820100       -5.18392232502271      -15.23655818142255
H            2.69723060397365       -2.24733298945999      -14.32454943005694
H            3.03748863670983       -2.92689963661809      -15.91562574471227
H            4.30673594358500       -2.09648710388134      -15.02418474504518
H            5.24828250254245       -5.72038705385636      -14.64266713776011
H            5.82221999053038       -4.15233671142189      -15.20247310959773
H            4.57581425419041       -5.00472869961735      -16.10714572318112
H            5.95599703663484       -2.54830526610808      -13.55191953073100
H            6.89317404253429       -2.10820121060094      -11.34622974307148
H            7.63904954125444       -1.68970087212334       -9.36870151620619
H           12.85935767000293        0.16443746465110       -1.70885037589081
H           13.49672389020987       -0.83395063716552        0.42864145671928
H           14.63538588711559       -2.60158639427108        1.34275586694703
H           14.12800343085951       -4.17370972526745        0.73253194165321
H           14.34163493194856       -3.92527499953755        2.46501433960465
H           12.97382894554906       -1.12670707796266        2.61680465024773
H           12.65697348658260       -2.43375144386085        3.75157480018240
H           11.32277222539764       -1.68296884651838        2.87656389133573
H           11.78556339852658       -5.05733797910081        1.25668075444344
H           10.63054092048601       -4.03732842414690        2.12643412013325
H           12.02033917110437       -4.71407595113112        2.96434785269456
H           10.52280574100537       -3.83666527552120       -0.10022169211733
H            9.90031909855480       -2.83186087015134       -2.23151003963055
H           12.44363871267685        3.63513471595860       -7.70350873672694
H           13.64449392715226        5.63793478295523       -8.37280422005916
H           14.08569722316926        7.82875907716606       -8.35341030154751
H           15.34335801181311        6.85986598086546       -9.13476417681457
H           15.69400353100423        8.49584553295984       -8.59532606115370
H           14.24106336206214        8.33973026434638       -5.84713724587284
H           15.81786929028215        9.06070979761086       -6.16746584402459
H           15.65168289863271        7.82230105150178       -4.92846589290517
H           17.30745408008100        5.96641257772389       -7.75389561661387
H           17.46629804584491        6.41124347246930       -6.05712143203753
H           17.65819869055107        7.63569079235161       -7.30668909221783
H           15.81963158963265        5.56625019164271       -4.71601424083445
H           14.60834283320728        3.55219776406750       -4.04445391883879
H           11.39962047482893        1.86215973486989       -7.07216894156101
H            7.72219519131343       -2.96386952865284       -2.58313705785757
H            6.54801178698560       -3.94552683089561       -0.67754662330286
