42
 energy: -9.207124438945 gnorm: 0.000480852329 xtb: 6.5.0 (97a52f5)
O           -0.00935362468368       -2.67365094994813       -0.25992782908264
C           -0.00454663305345       -1.46281664495529       -0.21426152506268
C           -1.17475938883779       -0.56384176254733       -0.14879089318868
C           -2.52216339947321       -0.85712261491637       -0.12721245394265
C           -3.44975836147213        0.18380090925973       -0.06679658762184
C           -4.90130613289056       -0.10575237917702       -0.04091918588507
C           -5.79177661508981        0.63413850555053       -0.81690312601939
C           -7.14272686249296        0.36552500937205       -0.78902495797136
C           -7.63139912500331       -0.64509833924808        0.01394565786759
C           -6.76440283590226       -1.38875098721391        0.78877729707306
C           -5.41268390213268       -1.12366182555344        0.76198284418230
C           -2.98710847971057        1.50606116631787       -0.02774022561260
C           -1.64071922761975        1.80265452817472       -0.04617749308615
C           -0.72679108120316        0.76100379547872       -0.10700333438463
C            0.73566496427575        0.75654723972347       -0.14213318491412
C            1.65778408770040        1.79260652289645       -0.12307530860926
C            3.00163717056045        1.48802470683155       -0.17213068721451
C            3.45333017265378        0.16335414524735       -0.24387334661753
C            4.90230310704837       -0.13459187046353       -0.30595244822322
C            5.80318942851348        0.51783197814772        0.53370616744463
C            7.15140730335432        0.24111175043361        0.47227411151487
C            7.62686609720327       -0.69001282461434       -0.42878453489963
C            6.74936064145759       -1.34587871396759       -1.26825908061790
C            5.40029889849576       -1.07309965149564       -1.20784149260146
C            2.51769219196361       -0.87187315522743       -0.26241028789414
C            1.17282331740417       -0.57084322114717       -0.21022786944785
H           -2.84761178124520       -1.88007849193917       -0.16880574559614
H           -5.40933538233884        1.41467273568044       -1.45172157287585
H           -7.81919993700061        0.94430978614024       -1.39655726239390
H           -8.68860534499426       -0.85329123411596        0.03575844389180
H           -7.14572647015250       -2.17691465997124        1.41728267177333
H           -4.73776343776417       -1.69583160801742        1.37487259697090
H           -3.70713221313750        2.30358543711356        0.03093432337182
H           -1.29354694396610        2.82014706818923       -0.01277269253531
H            1.31866061198698        2.81208261201189       -0.07215913757461
H            3.72823371383843        2.28175745479753       -0.16916223513999
H            5.43077710833767        1.23585781955778        1.24379119073961
H            7.83627006894997        0.75108662581328        1.12990547538839
H            8.68193539876935       -0.90451371554751       -0.47675143804600
H            7.12059692012257       -2.07086925591077       -1.97408227665045
H            4.71695819989936       -1.57642061375351       -1.86982060440063
H            2.83528777763270       -1.89720527700818       -0.30658196210599
