65
 energy: -14.598367752754 gnorm: 0.000768834742 xtb: 6.5.0 (97a52f5)
O            1.89490735839792        0.06756323731009       -0.12510139250666
C            3.11135621507248        0.06732603108779       -0.11640453600248
C            3.83291897880298        1.32115005433401        0.19466971423402
C            3.07376364955734        2.44181824770078        0.49075878488862
C            3.65974431315162        3.66198809881761        0.78894913464775
N            2.84043079728188        4.80312077221004        1.08861674891175
C            2.91558453872124        6.06495012845332        0.46600440463907
C            3.74305555836402        6.53282119909018       -0.55381555043849
C            3.58470876310049        7.82403365173627       -0.99205501432181
C            2.61341531813526        8.65989495166436       -0.43483543150508
C            1.78557792832497        8.21276426043284        0.56591539103987
C            1.93325961678649        6.90194303871500        1.02121485235396
C            1.23128639377430        6.13448746555635        2.02236111396315
C            0.18548592215742        6.45270118451776        2.88972881268814
C           -0.26813189732068        5.48838187039294        3.75635663645601
C            0.30262890635047        4.21308843335358        3.77587063245761
C            1.33198035049337        3.88508497477833        2.92893845965604
C            1.80221665606829        4.85092489539512        2.04017231416835
C            5.04529718813506        3.75502611540134        0.79008334961806
C            5.81152319861276        2.64675443635440        0.49915870775396
C            5.21693868141406        1.44295819348731        0.20451570840735
S            6.31864387004485        0.08211247703988       -0.15644673519243
O            7.04345523857181        0.39557706749801       -1.44935920427485
O            7.12019340239431       -0.21883978886039        1.09358332385991
C            5.22121712385825       -1.29744363801481       -0.45405585992483
C            5.81986219023603       -2.50295610170649       -0.73300713099500
C            5.05730502671991       -3.62481632229505       -0.97785798255635
C            3.67136244000194       -3.54386971206838       -0.94562408251112
N            2.85580268491372       -4.69954239120583       -1.19568933961139
C            2.95688153615371       -5.94327608614391       -0.54111759086929
C            3.81495689487026       -6.37732400171311        0.46832775605055
C            3.67712166197949       -7.65649183440422        0.94693917455012
C            2.69634625135581       -8.51327194166521        0.44042480412254
C            1.83872853873219       -8.09953089835104       -0.54955530780786
C            1.96568886947490       -6.80148123724102       -1.04588198039500
C            1.23174372883267       -6.06662738718813       -2.04856121839720
C            0.16489172797023       -6.41523253782713       -2.87777490157610
C           -0.31943011630658       -5.47796145737848       -3.75736022729405
C            0.24126891529604       -4.19997573576496       -3.82723650135688
C            1.29133110465585       -3.84238095684702       -3.01857389588325
C            1.79300379327620       -4.78051285214145       -2.11740577086353
C            3.08118867260195       -2.32191237947664       -0.66346380208047
C            3.83674770176764       -1.18769339373989       -0.41336305103517
H            2.00244088240428        2.36019155325192        0.47618894849366
H            4.48139649881796        5.88130865581136       -0.98493113534738
H            4.21782238638820        8.19985570394156       -1.77886177603281
H            2.51124213099611        9.66889859683345       -0.79847820746926
H            1.03208481274040        8.84851864090658        0.99583404944620
H           -0.24652525739193        7.43751836833150        2.87150161961301
H           -1.07356957170026        5.71861581444586        4.43389973180910
H           -0.07065967354048        3.47674094852434        4.46842651195625
H            1.78042618488152        2.90822099117777        2.94408563661241
H            5.50791117761943        4.69536753275768        1.03274573231872
H            6.88763729220752        2.71253490712387        0.50102892880473
H            6.89620472140453       -2.55940130626013       -0.75862527705341
H            5.52277369362737       -4.56677775273490       -1.20846927333486
H            4.56048023113900       -5.70963524276937        0.86057109896253
H            4.33378908304298       -8.00619582367078        1.72646994723227
H            2.61043645820504       -9.51196609288461        0.83539589451803
H            1.07775039691112       -8.75144670661636       -0.94034477204786
H           -0.25914624570677       -7.40203409078044       -2.82093361116677
H           -1.14139415833784       -5.73199117160952       -4.40594020271946
H           -0.15614752703023       -3.48533068761892       -4.52902552087745
H            1.73228578076155       -2.86350860480528       -3.07307747039381
H            2.00979100978637       -2.24906436466699       -0.62624417039259
