40
 energy: -8.769761510793 gnorm: 0.000843434090 xtb: 6.5.0 (97a52f5)
O            2.70072058184996       -0.69556706968584       -1.15338779850471
C            2.45802664810752       -0.80746836021104        0.02823963967214
C            3.19876572363831       -0.19321217042479        1.14248222045501
C            4.29501494594623        0.62001118636206        1.15072234410262
C            4.80508788214097        1.07186832727860        2.38974706068370
C            5.93569119209480        1.91254296163271        2.45847027855394
C            6.41497472773006        2.33973327141301        3.66068956772051
C            5.79279969044737        1.95144740433507        4.85132865512407
C            4.69859482582417        1.13963822889820        4.82774344915589
C            4.17064753627638        0.67475392758380        3.60370140337645
C            3.03792505983943       -0.16801573240996        3.56149726555125
C            2.56587213749694       -0.59086282665702        2.34658050709217
C            1.43861796140041       -1.44912554841545        1.99759110736865
N            0.60923148032264       -2.01827564961452        2.86004862010963
C           -0.37007491871401       -2.77671110404820        2.31046171298485
C           -1.28323844535661       -3.39806963792715        3.19454133445084
C           -2.29379351720071       -4.17310009039730        2.73469034153371
C           -2.45843158734521       -4.38012522566854        1.34645626696690
C           -3.49197197676465       -5.17592875381485        0.81992645061178
C           -3.61478617825072       -5.35185268107248       -0.52880764177751
C           -2.71343184446806       -4.74243101960324       -1.40181830346067
C           -1.70278028630465       -3.96555189798351       -0.91573593605574
C           -1.54621918382657       -3.76191008287879        0.46405841212488
N           -0.53155596336408       -2.97849751533634        0.97670102032842
B            0.39378022230112       -2.35507179002025       -0.06888230305656
F           -0.35053097713589       -1.53538687241437       -0.89539246659255
F            1.01617131403703       -3.36576496784919       -0.77604703263398
N            1.43247193277932       -1.53205833457470        0.65369052136894
H            4.75879555956768        0.90894749121494        0.22553337836436
H            6.41766518815639        2.21388601639122        1.54437474901765
H            7.27993263747678        2.98173168434309        3.69721399770842
H            6.18429674102647        2.29888790309648        5.79348862126086
H            4.22272999394576        0.84354841374469        5.74663371367651
H            2.54927866140168       -0.47621549177908        4.46691297704947
H           -1.15376973676780       -3.23851113310655        4.25088252018766
H           -2.98049715765924       -4.63930572461458        3.41984188578954
H           -4.18676673354661       -5.64566371681472        1.49464980725078
H           -4.41025687392227       -5.96321301690637       -0.92233563512025
H           -2.81814041234703       -4.88665953293640       -2.46479858726527
H           -1.00554685083237       -3.49348086912739       -1.58522412517429
