88
 energy: -19.235610719601 gnorm: 0.000829884157 xtb: 6.5.0 (97a52f5)
O           -0.10347005328589       -2.54645816607145        0.15401951309677
C           -0.08893756177150       -1.32932740782318        0.08216026148190
C            1.17841759759060       -0.58482388546448        0.04062510843904
C            2.38832429137657       -1.26746358274470        0.06302654292673
C            3.58304659526339       -0.59206013128795        0.02236833108150
C            3.61450819347034        0.80441207645008       -0.04018848535504
C            4.89312789939550        1.54089477896751       -0.08454919449374
C            5.03158235052243        2.77652982030649        0.55125714216516
C            6.21770404155745        3.46605823385224        0.50582473220134
C            7.31878443682306        2.95322922821768       -0.17867471360272
N            8.55327298265867        3.67398444734168       -0.22797284123578
C            8.94950748133599        4.50895893779951        0.87139466732332
C            9.58153996638928        5.72917186367842        0.64467374533380
C            9.96671913738569        6.52781875432812        1.69744934165684
C            9.72911583569816        6.12274890190018        2.99630938212267
C            9.10486607831152        4.91486896893503        3.23825536875788
C            8.71884959867261        4.11428095602850        2.18710125991106
C            9.40219554673134        3.57893022733545       -1.38247169600865
C           10.78769444164212        3.54784188311311       -1.24406779085841
C           11.60267263319063        3.46526616913707       -2.35023800708705
C           11.04999385732905        3.41377224238780       -3.61490740282075
C            9.67799420568717        3.44556125742044       -3.76933064498746
C            8.86074189670248        3.52807790147732       -2.66475419538879
C            7.18325492508463        1.71965243347798       -0.81436897335115
C            5.99784260057571        1.02850596056355       -0.76789028029854
C            2.40177853471682        1.48474686630307       -0.06055536031643
C            1.18996339221889        0.81723816263279       -0.02311529749586
C           -0.06511053717201        1.58711434656617       -0.05617490471035
O           -0.05032528580897        2.80558089980882       -0.10116165035649
C           -1.33174846247343        0.84184441639149       -0.03595339733458
C           -2.53939948629007        1.52616274279088       -0.08837577622622
C           -3.73477556582231        0.85200803779492       -0.07806793710717
C           -3.76883113483775       -0.54397740699251       -0.01013190885512
C           -5.05328942045104       -1.27203522225691        0.00104144024332
C           -6.13073163302145       -0.83592830166366       -0.77262370918114
C           -7.32940581248847       -1.50438920417226       -0.75564905109731
C           -7.50611684074716       -2.63638153235372        0.03905203001977
N           -8.76123519028463       -3.32279090001182        0.06577419075073
C           -9.58260825715514       -3.36873486649014       -1.11170070017202
C          -10.96622765062718       -3.23920077282499       -1.01957988936239
C          -11.75279263297139       -3.28251442591329       -2.14836488218343
C          -11.17284330527188       -3.45817124116396       -3.38953173225552
C           -9.80240511809148       -3.59039883047252       -3.49756369611964
C           -9.01345583645194       -3.54634674747346       -2.37044113782071
C           -9.22137251118585       -3.94707358288594        1.27407022648237
C           -9.92539989966352       -5.14794800891516        1.22997595247859
C          -10.37600131890817       -5.74126788481934        2.38740945468720
C          -10.13337310099739       -5.14669108322690        3.61013954409634
C           -9.43812989804202       -3.95496045872903        3.67094662878116
C           -8.98642271474001       -3.35968889903888        2.51492851995458
C           -6.43035416830598       -3.07653108686143        0.80943827391894
C           -5.22959969547084       -2.41093369395333        0.78945560992159
C           -2.55835759614416       -1.22667820480420        0.04692099494453
C           -1.34478114699120       -0.56030327789353        0.03219821652310
H            2.37058486565656       -2.34243710289798        0.11488331498903
H            4.51001663499631       -1.13726204121272        0.05641805945413
H            4.19712638383995        3.18229497618229        1.09626439652096
H            6.30735015487426        4.42218685034098        0.99097008897759
H            9.75716964753587        6.04247305991337       -0.36948666084879
H           10.45391376183435        7.47012891295526        1.50788317896833
H           10.03061817161923        6.74884179171560        3.81996469594922
H            8.92019386869059        4.59780005485213        4.25153960833955
H            8.24167548124577        3.16755981171119        2.36978340364666
H           11.21163316852829        3.58207644205981       -0.25582460573876
H           12.67320692182654        3.44075574061494       -2.22921294642914
H           11.68879589985073        3.34915522290489       -4.48038852244616
H            9.24622535750008        3.40714712298992       -4.75596619477097
H            7.79168153094514        3.56547085731155       -2.77959486683986
H            8.02960811936410        1.30899577306065       -1.33634568381926
H            5.90796130184770        0.08550004007007       -1.27840018248136
H            2.39292017457263        2.55752676587595       -0.12469098075209
H           -2.51908314149150        2.60126235916744       -0.13695620399830
H           -4.66116661783639        1.39873528141369       -0.10489802648517
H           -6.00880095705760        0.03015210175462       -1.39968013586791
H           -8.15527401769929       -1.15177331617963       -1.34815950304151
H          -11.41101436140842       -3.09471372497610       -0.05065555506879
H          -12.82206542419611       -3.17862321607379       -2.06365170723470
H          -11.78945074554058       -3.49186180556962       -4.27267855621192
H           -9.34942572903974       -3.72881570874071       -4.46557746300558
H           -7.94608475284164       -3.65736756717788       -2.44692863354907
H          -10.10588121207931       -5.60941340412260        0.27501670144102
H          -10.91894525179963       -6.67090430286881        2.33924395827693
H          -10.48723846733604       -5.61147728815061        4.51571579796572
H           -9.25025332138638       -3.48938994734962        4.62451959853878
H           -8.45486809904991       -2.42521631696088        2.55556624149313
H           -6.55242905440339       -3.95630946984445        1.41656749322076
H           -4.41442960362593       -2.75566500212985        1.40163334958866
H           -2.55373737278240       -2.30069465933571        0.08674531799284
