82
 energy: -16.229157923323 gnorm: 0.000508250407 xtb: 6.5.0 (97a52f5)
C           -2.25017391937405        0.27737069069837        2.93121222254844
C           -0.80403188114819        0.32481279983148        3.45923777015367
C           -0.83163095259174        0.89148835572390        4.89282715192795
C           -0.22340250018187       -1.10080895377887        3.51102128308747
C            0.06104365899834        1.18343916554434        2.52273865808623
C            0.81574064920915        2.25760906540118        2.98328519799001
C            1.63541444323660        2.96484592046837        2.13688701714882
C            1.73691032666878        2.63056994000636        0.78519931884864
C            2.67817516829897        3.31397034617578       -0.08027576094544
C            3.63848251256391        4.25343650251500        0.34882569077580
S            4.14595933611577        5.11775145389624        1.78090802267703
C            5.44831298047594        5.94772022244250        0.92361538320618
C            6.35732030558380        6.87870448264076        1.40034899412825
C            7.29880855183964        7.40371558774190        0.54208724208844
C            7.34540794912851        7.01069164242745       -0.79347180116390
C            6.45135500413762        6.08907230380357       -1.28197563488767
C            5.49622344466099        5.54917527688937       -0.42089178089197
C            4.46281741597851        4.58488054910084       -0.73510218197716
N            4.02196257478949        3.86232216641211       -1.80631656730616
C            2.91760868488998        3.09289691527790       -1.48471114543812
N            2.18389821589205        2.33986754533301       -2.30911377254195
C            2.69018162033175        2.28664968351453       -3.54424560548012
C            2.12632959952147        1.59252827003325       -4.67511936851686
C            0.82079561459165        0.97183724275094       -4.78433569842746
C            0.42849089298261        0.33394995838512       -5.96241749504379
C           -0.83563413542077       -0.18658644853542       -6.09786537308213
C           -1.76955677525985       -0.09005323573969       -5.07244523942758
C           -3.18773158168031       -0.64379465033015       -5.28391398365002
C           -3.11205601862804       -2.16477988227519       -5.51027721945347
C           -4.09476423955653       -0.37418886677160       -4.06729399786200
C           -3.82127396801697        0.03236959036318       -6.51564757998685
C           -1.37360082700793        0.52789865911046       -3.89000603965478
C           -0.10759481105625        1.04622131367955       -3.74828649487449
C            3.05532317137633        1.71798445016078       -5.72866023136395
S            3.28732566105563        1.25269283797091       -7.39765322483338
C            4.85977672303987        2.05166398841808       -7.49271161670133
C            5.74530374691336        2.12027258246426       -8.55641908627427
C            6.93465767206611        2.79869641189423       -8.40193261346704
C            7.25415350485095        3.41373103195049       -7.19362019116188
C            6.38679045868320        3.35619033986693       -6.12982624097532
C            5.17899557292041        2.67430115681198       -6.27652008532475
C            4.14395864182301        2.48003489410564       -5.28289490151626
N            3.88710429657324        2.82178887825672       -3.98649234873220
B            4.72916880283147        3.77819763772269       -3.15259229985758
F            4.76260566653154        5.02659795618961       -3.75380224561039
F            6.00623195382913        3.26638538843759       -2.98383667215596
C            0.96397785125284        1.56856309144205        0.32122592467185
C            0.14882082675791        0.86075624399213        1.17263498714745
H           -2.88754981963023       -0.30381420633793        3.59662305095355
H           -2.29893519403814       -0.17963254904897        1.94435861165714
H           -2.66588182827127        1.28148893408961        2.85774825933775
H           -1.46475700943556        0.28198677881403        5.53666848021430
H           -1.22743223707203        1.90626776658315        4.90537830171945
H            0.16562638117786        0.90185184246864        5.33097568310508
H           -0.80411496616926       -1.73510089889946        4.17965553957111
H            0.80497108017273       -1.08400504256242        3.87023926334304
H           -0.22525038499664       -1.56347865277485        2.52530356995162
H            0.77502615463631        2.53640474968724        4.02095447776095
H            2.23190676201355        3.77443270426691        2.51597380857220
H            6.31448763786986        7.18042538400883        2.43245768240743
H            8.00661452506388        8.12940323034100        0.90755634243179
H            8.08695284613626        7.43578133726045       -1.44960419297786
H            6.46197343622947        5.77966814269044       -2.31200820415156
H            1.12769980021304        0.27195257220223       -6.77611257541127
H           -1.11172248718587       -0.66825761870189       -7.01958341118919
H           -2.65439498995984       -2.65874169264647       -4.65408152087718
H           -2.51868756297459       -2.40397018694099       -6.39137307819085
H           -4.10602995614114       -2.58719838729182       -5.65284639554145
H           -3.70794380908179       -0.86072818509348       -3.17287432903640
H           -5.09901241962876       -0.75866276890307       -4.24223265574274
H           -4.18065514704108        0.69419558632981       -3.87253112673902
H           -3.25518967989052       -0.17976762792359       -7.42111671634963
H           -3.85364061145130        1.11356957538592       -6.38669186148474
H           -4.84034020516476       -0.31922940910574       -6.67230734542650
H           -2.06685205742395        0.61576444639856       -3.07280369238765
H            0.17830887658223        1.54088777436401       -2.83912216499518
H            5.49467284536024        1.63989515031548       -9.48621712200649
H            7.62804754160923        2.85215952182852       -9.22503491621975
H            8.19131077611132        3.93563583125089       -7.09141946186155
H            6.61840393199242        3.81323210211231       -5.18415749030083
H            1.04005600340790        1.29222589305147       -0.71353463154571
H           -0.41615012351545        0.02825740163507        0.79125945564000
