68
 energy: -14.870449103001 gnorm: 0.000181191560 xtb: 6.5.0 (97a52f5)
O           -0.05701318779449       -2.64093506697084       -0.04576996399947
C           -0.03911870553388       -1.42200745280424       -0.08647022450122
C            1.22482989424030       -0.67622966276720       -0.08243730242191
C            2.43533216753008       -1.35121319572876        0.02880833202103
C            3.62515178458866       -0.66952494358613        0.03999503356208
C            3.65403485471619        0.72261321461721       -0.07478228020700
N            4.88695458913708        1.44058621523394       -0.06960684015143
C            4.92242221767364        2.83573451442096        0.27481026042537
C            5.70422610500821        3.72117417405729       -0.46285985126304
C            5.74345269505213        5.05903071412026       -0.14238709722093
C            5.00622828056887        5.53714453001408        0.92297116063292
C            4.23310144902164        4.67036243307175        1.67025334597076
C            4.19298882600304        3.33166770047360        1.35256041801778
C            6.12137449654067        0.78787805377898       -0.41060977120211
C            7.27287121347570        1.03136728950243        0.33386564379611
C            8.45971092611875        0.41152510474424        0.01564553837781
C            8.52018265561488       -0.45921896429602       -1.05452641741855
C            7.38917762107850       -0.70426782612775       -1.80842041912451
C            6.20090516168452       -0.08534393362250       -1.49256282148664
C            2.44315140319537        1.39473464077832       -0.18756556084678
C            1.23482078185588        0.72479778966740       -0.18244384014139
C           -0.01906491788056        1.49201914743327       -0.26563829565971
O           -0.00009537464274        2.70671816373968       -0.37478279525827
C           -1.28383745189395        0.75035291313984       -0.20348917948890
C           -2.49542565766511        1.43241999501593       -0.20858676931637
C           -3.68647109498536        0.75578451692127       -0.14636096420236
C           -3.71469730561854       -0.63991175705392       -0.08901660429288
N           -4.94925975841451       -1.35285095980693       -0.02495327318884
C           -6.16741798092335       -0.75853018091244       -0.50285167562708
C           -7.35143108307245       -0.90779925642361        0.21503729845460
C           -8.52289740491976       -0.34361369233709       -0.23607844394050
C           -8.53514967437269        0.37690258129026       -1.41411059146286
C           -7.37108721389012        0.52740295454238       -2.14193441699201
C           -6.19820280821132       -0.03636614206371       -1.69326913870332
C           -5.00033867527910       -2.68103198403488        0.52169844529548
C           -5.77311904354414       -3.66407999622766       -0.09126996862054
C           -5.82911624232585       -4.93825176275971        0.42593518830523
C           -5.11741302752220       -5.25394201156761        1.56650352814332
C           -4.35246106748514       -4.28828625528770        2.19081703424766
C           -4.29583237018347       -3.01282536542241        1.67639292605134
C           -2.50275748472995       -1.31959925469694       -0.08598281978431
C           -1.29363274584374       -0.65245724745815       -0.13146047225172
H            2.41924720124475       -2.42417998764289        0.11307705413593
H            4.55196585496089       -1.20335646682697        0.15157767900746
H            6.27154359049871        3.34240260760461       -1.29489179096036
H            6.34888619258613        5.73425799772664       -0.72450406827360
H            5.03534161329611        6.58525885642013        1.17161972988002
H            3.66058396209466        5.04272408011773        2.50381947887714
H            3.60291634575657        2.64996295771674        1.93973705042479
H            7.21660891402842        1.70697839340371        1.16934115548327
H            9.34222331612523        0.60510935825392        0.60302363780733
H            9.44935425993387       -0.94570997791636       -1.30189858892490
H            7.43761395000215       -1.38007369237550       -2.64638405061245
H            5.32052228510594       -0.26063047476443       -2.08566800386961
H            2.43531669436114        2.46447916779483       -0.28375031793423
H           -2.47934643633763        2.50764043301746       -0.25596207639519
H           -4.61514427496056        1.29770077281931       -0.12642890729599
H           -7.33345060243073       -1.46613233470811        1.13455412486817
H           -9.43117681176072       -0.46322715168147        0.33138047104820
H           -9.45240611978063        0.81974695925110       -1.76584556073468
H           -7.38142407856333        1.08608972940581       -3.06334167810151
H           -5.29191738162990        0.06509698411197       -2.26410936963908
H           -6.32069403634976       -3.41227697415006       -0.98255544367423
H           -6.42818743725354       -5.69052035929905       -0.06039239149769
H           -5.16018851067281       -6.25239551404468        1.96962849835966
H           -3.79946421260797       -4.53365135487086        3.08259154890547
H           -3.71254212520826       -2.25327158884462        2.16691646614103
H           -2.49516899881333       -2.39305215512807       -0.04858100155143
