92
 energy: -18.790163388798 gnorm: 0.000234291977 xtb: 6.5.0 (97a52f5)
O            5.60685117881084        2.29903597902056        0.41172149483251
C            5.00769458927765        1.24658385697889        0.26338474086809
C            3.54100140979651        1.21557225426437        0.28107225671406
C            2.82548831248750        2.37630366742989        0.47681175726540
C            1.44883061003522        2.37368906993043        0.43547371954372
C            0.71341935994631        1.21638622072074        0.18419886185727
C           -0.73629942012617        1.22839139862032        0.03479992074635
C           -1.49357372139908        2.41105189001365       -0.16282559793059
C           -0.89408687780848        3.73410150496280       -0.46566610483850
C           -1.08875493974066        4.81682376867350        0.39208320669951
C           -0.52892220443339        6.04307283439718        0.11274593215178
C            0.22556737572953        6.21622908535868       -1.03018212962044
C            0.41577265545079        5.15996827786692       -1.89835631785837
C           -0.14073568200544        3.93114035218754       -1.62342783640293
C           -2.88934894608463        2.34629180896147       -0.14997979535927
C           -3.57139011911276        1.16955114473390        0.01535703295028
C           -2.84775696717561       -0.03746690358576        0.14741838512586
C           -3.53962419102297       -1.25699952184824        0.31036307662217
C           -2.82046976141728       -2.42258878937767        0.45803601817751
C           -1.44485646166085       -2.41777612157858        0.39069619835572
C           -0.71480948174135       -1.25285315431109        0.15987988698358
C            0.73152444228776       -1.25974861007255       -0.01802287688517
C            1.48386110282270       -2.43563283194754       -0.26793700416865
C            0.87732458669193       -3.74622106605153       -0.60811982097720
C            1.09485925316640       -4.86266922719169        0.19939771411079
C            0.52998939306404       -6.07784738345324       -0.11595800056307
C           -0.25296611464826       -6.20581913822457       -1.24562910462990
C           -0.46666420889011       -5.11526365350852       -2.06451495804061
C            0.09506209427586       -3.89746714664333       -1.75355527093157
C            2.87971861243837       -2.37204679650541       -0.27633663586614
C            3.56544057822496       -1.20128300389353       -0.08554370033008
C            2.84528726806502        0.00155858871823        0.09522139370968
C            1.42427936272065       -0.01719656022150        0.08579789663636
C            5.03128104236448       -1.19560728975731       -0.11448477599902
O            5.65535132072870       -2.22903974352863       -0.29234276226479
N            5.68345465252888        0.03358250260012        0.05934486044550
C            7.14950889772076        0.04316112425792       -0.04373337503081
C            7.61783098573789        0.85967332599354       -1.26248305458198
C            9.15165734038041        0.85534780096078       -1.38587985580903
C            9.81085032707616        1.36808570462977       -0.09091510890841
C            9.34831165973778        0.54830608479036        1.12946631074275
C            7.81350975626262        0.55143036576674        1.24918811701689
C           -1.42715657955400       -0.01719395848981        0.11253521290461
C           -5.00637853876576       -1.28848761565056        0.32015636142627
O           -5.60236961365504       -2.34494559297760        0.45174110087372
N           -5.68601390908966       -0.07094808401012        0.16127625169912
C           -7.15356930195399       -0.07946245996028        0.08163806116223
C           -7.64100435860514       -0.86510905591459       -1.14991346068126
C           -9.17666814796149       -0.86014635952803       -1.24824749772068
C           -9.81445494444342       -1.40601948202910        0.04386764321072
C           -9.33267431493674       -0.61694091936321        1.27694123892783
C           -7.79615376620519       -0.62134444652267        1.37170666539307
C           -5.03752835646048        1.16316720848715        0.01021789104558
O           -5.66498638755996        2.20042861206670       -0.12919491035001
H            3.36551252760849        3.29246887997001        0.64429530732275
H            0.93390218717956        3.29764407759594        0.61390587482601
H           -1.67462015406991        4.67685705787845        1.28408448179834
H           -0.67965357659482        6.86915505798525        0.78812980240407
H            0.66403405339526        7.17675963475364       -1.24574448049634
H            1.00282168970987        5.29676643528874       -2.79153300635066
H            0.00607105829756        3.10372800716457       -2.29586909369458
H           -3.45471691816480        3.24974402342042       -0.29299924111160
H           -3.35713240758433       -3.34369372877036        0.60832584767424
H           -0.92611672933697       -3.34621781950616        0.53129785581400
H            1.70276132819067       -4.75803877223747        1.08144444585012
H            0.69919848564841       -6.93071793136947        0.52065560329354
H           -0.69533562287981       -7.15777969244377       -1.48938968757000
H           -1.07592668141910       -5.21666833410591       -2.94747939422886
H           -0.06992822762223       -3.04347513213295       -2.38749275536276
H            3.44184183682586       -3.27059539582521       -0.45785922358630
H            7.45846444679710       -1.00282960873701       -0.19549348669061
H            7.25554344844600        1.88662085195254       -1.14745221769156
H            7.14009815449852        0.47862577511793       -2.17348074514900
H            9.47325983481790        1.45260612945034       -2.24987977233481
H            9.49644227619579       -0.16533979921930       -1.58994064228078
H            9.54389815130299        2.42107866071815        0.05828411503494
H           10.90565432758882        1.35158468023438       -0.17892422475234
H            9.81025511338838        0.92809397200363        2.05081269316547
H            9.70201016877677       -0.48459745785770        1.02800666344437
H            7.45663884617261        1.56827070295030        1.44272535600082
H            7.47607096688892       -0.04763231472335        2.10379714871165
H           -7.46563850764719        0.96973592137517       -0.03828168237635
H           -7.27560228311739       -1.89408452883125       -1.06743663412445
H           -7.17893924500072       -0.45986900578891       -2.05855126062334
H           -9.51135331068403       -1.43649082288909       -2.12143192210928
H           -9.52602213267846        0.16465864358726       -1.42150210798464
H           -9.54478927837560       -2.46225266906527        0.16203581827332
H          -10.91055851763327       -1.38801940713166       -0.02592396124601
H           -9.77929166504849       -1.02043043975828        2.19577240456222
H           -9.68874762740669        0.41779496297702        1.20743434169022
H           -7.43534604847024       -1.64234160562381        1.53350925019461
H           -7.44556081940192       -0.04379852476106        2.23576927722239
