84
 energy: -18.857075329345 gnorm: 0.000294167747 xtb: 6.5.0 (97a52f5)
O            5.74130182599260        1.84166992726757        1.00003625077520
C            5.07393935175440        0.82781427244301        0.88583325603178
C            3.61397492444709        0.92139131870316        0.87140965089710
C            2.99539574263995        2.15173245799078        0.99622714446800
C            1.62681040188312        2.26197438354420        0.95009085181871
C            0.79958984777749        1.15197472281684        0.77304844395302
C           -0.63458482945800        1.27199097187669        0.68050474522052
C           -1.28762389601676        2.52988190141519        0.56067727810151
O           -0.60219373275227        3.74360023604676        0.33321396701093
C           -0.01302339187465        3.95626033129490       -0.92457421555783
C            0.71361684698445        5.12587860179949       -1.14067751415479
C            1.32607594029373        5.35823223259030       -2.34933959048267
C            1.22330539018209        4.43185858281306       -3.36786533193518
C            0.50001596713709        3.27211763937470       -3.17329764299268
C           -0.11489176641147        3.03588000018891       -1.96684336108843
C           -2.68467327613974        2.58625832653740        0.61079610044795
C           -3.46100881445514        1.46057791610336        0.71593851315646
C           -2.84144099788464        0.19139702235446        0.76127594303758
C           -3.63160990924175       -0.97064471495568        0.85296357327844
C           -3.01249671303249       -2.20606142201495        0.90183974160961
C           -1.64455413265401       -2.31357622246251        0.83530375256811
C           -0.81838405208470       -1.19529689669167        0.71464056587180
C            0.61506534275878       -1.30977230055127        0.60639768711306
C            1.26686770582875       -2.55957087261238        0.41669069496822
O            0.57835167730279       -3.76015680076178        0.13423758617280
C            0.00191052137726       -3.91917074546993       -1.13721832456344
C           -0.71361999561934       -5.08293019843858       -1.41343490084885
C           -1.31020858093681       -5.26572818205508       -2.63844155468984
C           -1.20287489519168       -4.29420727531727       -3.61351735499421
C           -0.49184823204900       -3.13856708869636       -3.35863989691151
C            0.10720361540185       -2.95179487614593       -2.13564510930767
C            2.66424555012738       -2.61818595123732        0.45124026533125
C            3.44159232870388       -1.49938065937707        0.60851368766798
C            2.82275474089050       -0.23446650065461        0.72606650534790
C            1.40646998141517       -0.13396495177258        0.70090550038236
C            4.90049796421840       -1.61847715289275        0.62356008587205
O            5.41399101621275       -2.71904210932409        0.52289480611520
N            5.67436996203873       -0.44458598815380        0.75418319700025
C            7.10149718418706       -0.54304236160721        0.72064555564213
C            7.73651519782829       -1.45579702901382       -0.11681355227785
C            9.10455216309389       -1.54542595895956       -0.16695757216095
C            9.90126404834459       -0.71732074686237        0.62741905763969
O           11.28236165167031       -0.77396702780908        0.60235273736503
C            9.26497856533103        0.19614214660078        1.47049298472631
C            7.89676550075120        0.27868841419621        1.51364245118878
C           -1.42546216162768        0.09258136391329        0.71794339135885
C           -5.09106936368367       -0.87778061606736        0.89567293611965
O           -5.75676060905214       -1.89595106568898        0.97613807905372
N           -5.69279294420389        0.39928614517351        0.83209220413140
C           -7.12019280801868        0.49984684165827        0.83565776348525
C           -7.77255033127492        1.45547559062959        0.06183112477878
C           -9.14107385301155        1.55144768833157        0.05130567364119
C           -9.92092741768119        0.68650784200650        0.82284902590829
O          -11.30186020593243        0.75052792584456        0.83895661641313
C           -9.26732568515265       -0.27164562707446        1.60048332993590
C           -7.89881280885017       -0.35976664390297        1.60466430916574
C           -4.91981945649832        1.57824947107630        0.74905214542303
O           -5.43368500096612        2.68234407918100        0.70512932737903
H            3.61220277390433        3.02586222258439        1.11912847439602
H            1.17505262410989        3.22991743060138        1.05809946547096
H            0.78711950324773        5.83938098561296       -0.33924555476951
H            1.88859642940870        6.26483576667780       -2.50170483070977
H            1.70624509089128        4.61426478496060       -4.31371035850384
H            0.41836681274609        2.54957790625765       -3.96883075781255
H           -0.67666368521856        2.13270726988637       -1.81276143739871
H           -3.16375921990320        3.54526423417825        0.53898147396028
H           -3.62842603846159       -3.08561606520121        0.98361789004350
H           -1.19257255181420       -3.28616291704582        0.88350248204222
H           -0.79044469798022       -5.83200513887024       -0.64548029458337
H           -1.86350603563983       -6.16892587319975       -2.83771191136587
H           -1.67268434458589       -4.43811712886136       -4.57251239226259
H           -0.40704971968467       -2.38060591895665       -4.12016069888986
H            0.65956813852471       -2.05202576992289       -1.93476595345944
H            3.14246500726233       -3.57215498690035        0.32630184822184
H            7.12665792155752       -2.10880289759611       -0.71696217186207
H            9.57493607026591       -2.25929432384240       -0.81899301647901
H           11.58586945431833       -1.44791873660951       -0.03325494068994
H            9.87536344157179        0.83822694902839        2.08044303600876
H            7.41388291552874        1.00147743313527        2.14831929398486
H           -7.17523964915169        2.13637964599714       -0.51961813014643
H           -9.62487322380311        2.29909394733873       -0.55119549308118
H          -11.61826171598281        1.46631040681884        0.25769922391071
H           -9.86467039292716       -0.94256552464789        2.19200770932277
H           -7.40300600283140       -1.11491406857483        2.18972445909395
