60
 energy: -13.701565762394 gnorm: 0.000635763081 xtb: 6.5.0 (97a52f5)
O            5.60210516635005        2.27602780478486       -0.20157238977354
C            5.01296129993783        1.21047818665852       -0.17375953001343
C            3.54884592385736        1.19945587198443       -0.14749322258987
C            2.84677070038331        2.38591129738065       -0.14395222004435
C            1.46786582778536        2.39978427893436       -0.13129359670701
C            0.72378172538102        1.22149381567900       -0.12291558399515
C           -0.72798976528634        1.22261527388615       -0.11348237236028
C           -1.47030360190570        2.40202193852972       -0.11063391348964
C           -2.84924088239839        2.39027907318155       -0.10415090061760
C           -3.55308893244485        1.20486159768608       -0.10149086167367
C           -2.84680400820027       -0.01584542777370       -0.10412149540412
C           -3.55532964955135       -1.23531541912337       -0.10394009124761
C           -2.85333430420375       -2.42189247215043       -0.10563322473364
C           -1.47432488739879       -2.43606908756155       -0.10885779150623
C           -0.72995051807286       -1.25789254740491       -0.11179259496032
C            0.72194103888611       -1.25900822628522       -0.11946966770155
C            1.46451544402909       -2.43830153156674       -0.12330704743832
C            2.84348557309209       -2.42635891086017       -0.13246091658130
C            3.54719142438484       -1.24082283501681       -0.13957187265163
C            2.84066673543043       -0.02022379884485       -0.13698433639734
C            1.42146394426701       -0.01924834266505       -0.12574332199449
C            5.01143038813884       -1.25365112734078       -0.14770461594745
O            5.60017645786596       -2.31960425520618       -0.12747642401974
N            5.70575029912353       -0.02216479597770       -0.17443964050810
C            7.13460080217717       -0.02390874282655       -0.21269193035280
C            7.87120558304858        0.98311977048970        0.41028689125475
C            9.24428540764421        0.98404695558948        0.37496470093180
C            9.91943536688344       -0.02786765567244       -0.28776890859420
Cl          11.64262475982363       -0.03022027178418       -0.33523003899876
C            9.20695433483331       -1.03820987970748       -0.91250775349558
C            7.83403090876595       -1.03334416364866       -0.87340156501280
C           -1.42756728529218       -0.01709548035397       -0.10914630212770
C           -5.01977015901759       -1.24594692076363       -0.11328870143823
O           -5.60904678567831       -2.31159936243921       -0.13249701453677
N           -5.71236101999463       -0.01307659932435       -0.10823614069175
C           -7.14164606050878       -0.01025524708517       -0.12708714136260
C           -7.87089181785368       -1.01880150975676        0.50206809142695
C           -9.24433269288324       -1.01927763978621        0.48395264376329
C           -9.92747493282384       -0.00548124923092       -0.16755467350405
Cl         -11.65114585690471       -0.00410969358243       -0.19573523167976
C           -9.22255490727529        1.00658731888114       -0.79791995540043
C           -7.84926503523644        1.00123166881555       -0.77594076861196
C           -5.01735085652304        1.21821473286916       -0.09316395754984
O           -5.60439227952505        2.28504664833557       -0.06958500052534
H            3.40278371514305        3.30834983055447       -0.15459512729317
H            0.96757895747694        3.35025716536888       -0.12969333261393
H           -0.96877116321926        3.35185893299218       -0.11447346471225
H           -3.40399322648432        3.31356220258866       -0.10117379957322
H           -3.40961896685737       -3.34423929376059       -0.10761522859991
H           -0.97405049423982       -3.38655856598381       -0.11078262517825
H            0.96299868861809       -3.38816710422099       -0.11998121789008
H            3.39837048073413       -3.34956577308573       -0.13397512300905
H            7.33938537564498        1.77662887669966        0.90613398484716
H            9.80994503728204        1.76666867652439        0.85199130986501
H            9.74433079688178       -1.82239611960105       -1.41875194637561
H            7.27445226003282       -1.82565103602825       -1.33962476738854
H           -7.33333176687182       -1.81440735600193        0.98812576201610
H           -9.80416126276875       -1.80347576748522        0.96521190770732
H           -9.76573429391198        1.79260279580345       -1.29504220533778
H           -7.29548701057588        1.79516949568506       -1.24620373759461
