62
 energy: -14.157762416401 gnorm: 0.000644919483 xtb: 6.5.0 (97a52f5)
O            5.61705612613256        2.23899662123324       -0.19570868562667
C            5.02046789024684        1.17725769007911       -0.17399260026796
C            3.55657846448344        1.17541521372100       -0.14839594693288
C            2.86175607956766        2.36641240590167       -0.14130252818556
C            1.48327463049771        2.38906107543075       -0.12834915977615
C            0.73166852615769        1.21527604303696       -0.12274375844435
C           -0.71978640651633        1.22561730537848       -0.11534312248304
C           -1.45448394616933        2.41005036052776       -0.11685636158928
C           -2.83316742675036        2.40712608860589       -0.11215445518684
C           -3.54483692274141        1.22613299398456       -0.10639380686962
C           -2.84657504129170        0.00078402986462       -0.10474437134086
C           -3.56296908200750       -1.21410924055779       -0.10111000362437
C           -2.86819374284196       -2.40521713858435       -0.09908867746672
C           -1.48958286459233       -2.42824945377742       -0.10287026400760
C           -0.73761905801624       -1.25466159582287       -0.10999719399994
C            0.71394629192261       -1.26500374583989       -0.12120051021567
C            1.44896183429366       -2.44925405027617       -0.12936472931658
C            2.82767229814169       -2.44606011838822       -0.14213357894693
C            3.53921839240917       -1.26493676949754       -0.14784355080403
C            2.84063056627673       -0.03976720618977       -0.14046494331538
C            1.42139278999093       -0.02982092821233       -0.12724871733884
C            5.00305179102851       -1.28716430914960       -0.15875072442837
O            5.58565982276106       -2.35678455750163       -0.14398986314733
N            5.70484867512139       -0.05992057282068       -0.18118391854221
C            7.13344322693115       -0.07088788741363       -0.22180778456129
C            7.87959967609450        0.92269130088963        0.40842798180872
C            9.25018378542059        0.91838899551467        0.37254457335420
C            9.94165977756897       -0.09139100460278       -0.30292066029132
O           11.31936887562437       -0.13335839143663       -0.36352174005848
C            9.19561643365472       -1.08921622627332       -0.93548949771910
C            7.82595757306595       -1.07583574139769       -0.89327014278274
C           -1.42728686272094       -0.00950360444825       -0.10920122450844
C           -5.02719474068321       -1.21518285649444       -0.10956300773080
O           -5.62430789652101       -2.27675478320822       -0.12302474113231
N           -5.71126493507654        0.02229187274612       -0.11045120566318
C           -7.14030242877016        0.03468142286050       -0.12993963031352
C           -7.87857046136787       -0.95977451917238        0.50814621562421
C           -9.24953380445225       -0.95532121322322        0.48950961258752
C           -9.94954977892120        0.05543268197845       -0.17560245684542
O          -11.32788871478906        0.09669361287409       -0.22125728108652
C           -9.21149161072201        1.05503057326317       -0.81463579821866
C           -7.84144088289392        1.04131012016707       -0.78993618787930
C           -5.00863764785694        1.24919980959965       -0.09961675321482
O           -5.58964917271280        2.31962340864364       -0.08074812226404
H            3.42348884809383        3.28544962484045       -0.14910347560597
H            0.98881857492258        3.34250789688811       -0.12377257691889
H           -0.94662465625699        3.35641692678361       -0.12310239399718
H           -3.38188938375447        3.33401710659879       -0.11287868114433
H           -3.43013987046068       -3.32415650976348       -0.09746477115974
H           -0.99514236361133       -3.38172077869311       -0.10142292016093
H            0.94112217111738       -3.39565776532327       -0.12705006185560
H            3.37653856621840       -3.37285196943580       -0.14732397888612
H            7.35286063519794        1.71361866675392        0.91385708186698
H            9.80475568112256        1.69858589616214        0.86226520464520
H           11.70847408637804        0.62057593750246        0.11545105848988
H            9.72414136833042       -1.87084558820592       -1.45193145858856
H            7.26024043289090       -1.85958740424296       -1.36662560336731
H           -7.34561994843521       -1.75173811329607        1.00535567849803
H           -9.79783130575294       -1.73686430082559        0.98411471268718
H          -11.71109464179078       -0.65710257594972        0.26263113146297
H           -9.74638333195404        1.83811647867887       -1.32225070469673
H           -7.28186496124406        1.82643875951343       -1.26822891851793
