58
 energy: -13.546204804892 gnorm: 0.000813432296 xtb: 6.5.0 (97a52f5)
O            5.59996094381631        2.27117503413721       -0.11810845224638
C            5.01772619719713        1.20233871998781       -0.11904574662110
C            3.55199418522591        1.19354489641265       -0.10372849750685
C            2.85287471893248        2.38044840400143       -0.08687871621152
C            1.47275871565565        2.39732631091530       -0.08585565296282
C            0.72687511390732        1.22194580987220       -0.09908227375090
C           -0.72640106313004        1.22556329821033       -0.10758722129802
C           -1.46628853659077        2.40466087439152       -0.12496264200101
C           -2.84643347827992        2.39469174104550       -0.12851386898761
C           -3.55144869036782        1.21128433411304       -0.11320691555379
C           -2.84657897820129       -0.00956300910969       -0.09716477945285
C           -3.55791282375244       -1.22667585110131       -0.07937756674794
C           -2.85872842318387       -2.41359309388897       -0.06272250950979
C           -1.47857729330749       -2.43073164697574       -0.06904978608139
C           -0.73265633498346       -1.25547119545306       -0.09152225202145
C            0.72063121765435       -1.25909769250073       -0.10994536348736
C            1.46059815379303       -2.43806896776318       -0.13375272720041
C            2.84071953647150       -2.42786264275591       -0.14917831999202
C            3.54575275233158       -1.24435588633738       -0.13921804686095
C            2.84078938480020       -0.02369756898148       -0.11591784500317
C            1.42214196142309       -0.02029626470864       -0.10719812240660
C            5.01143284519781       -1.25997383852011       -0.15211066611601
O            5.58857981214328       -2.33151440856584       -0.16384056330204
N            5.71408430515796       -0.03050796058938       -0.14475912660232
C            7.14108407233731       -0.03381198859110       -0.18186260677424
C            7.89880294361276        1.01971904252655        0.30359761251543
C            9.26856692844497        0.96746923722700        0.24605321075503
N            9.96235224533185       -0.04021392585638       -0.25536524489572
C            9.23913872438480       -1.04412694257099       -0.72152492854892
C            7.86803197591805       -1.08985568400199       -0.70736225558635
C           -1.42791130573333       -0.01319780765759       -0.09875142432199
C           -5.02382087335760       -1.23497218205921       -0.08439397462785
O           -5.60649475950636       -2.30355985013134       -0.08069893744743
N           -5.71988842121259       -0.00185103221819       -0.10150998572571
C           -7.14724088020180        0.00353142507740       -0.11213234006102
C           -7.89752230826477       -1.05014945856156        0.38435418311990
C           -9.26802049689922       -0.99493408112813        0.35348899395339
N           -9.96916969894877        0.01599485369626       -0.13088554545884
C           -9.25303918903550        1.02031499204478       -0.60698755857771
C           -7.88183378495174        1.06319891927228       -0.61943597007206
C           -5.01707442615961        1.22746753899107       -0.10738928754250
O           -5.59400985047958        2.29917480372776       -0.10128297160704
H            3.41091362725216        3.30181025466580       -0.07880178709582
H            0.97484128120737        3.34902993633113       -0.07277791484027
H           -0.96366188186907        3.35386597876809       -0.13921343260820
H           -3.39990320723362        3.31875600526943       -0.14073209258943
H           -3.41674406815514       -3.33487603010545       -0.04747740756120
H           -0.98052690013332       -3.38233515155180       -0.05349028790554
H            0.95789175694092       -3.38727513502699       -0.14556712233296
H            3.39425180886834       -3.35177383284303       -0.16819363771595
H            7.39820019152461        1.88227905261437        0.70644677997138
H            9.84522835602628        1.79794330597604        0.62738871577815
H            9.79144749233343       -1.87670967684297       -1.13308736220915
H            7.34362781858738       -1.94988462100387       -1.08453252860119
H           -7.39073324863150       -1.91458835243416        0.77522234269091
H           -9.83886393661805       -1.82561123306997        0.74302137152433
H           -9.81142447764489        1.85576570326705       -1.00429371660247
H           -7.36288972964867        1.92375654038929       -1.00300522706455
