58
 energy: -7.359028680493 gnorm: 0.001826315694 xtb: 6.5.0 (97a52f5)
O            2.84644047151115       -3.63296190897223       -0.35670602856052
C            2.08349357506303       -2.78017378357137       -0.69546504708109
C            0.90107679079549       -2.34137345145855       -0.13894186935631
C            0.19731934763466       -2.97367398826225        0.77212280115920
C           -0.90387450031553       -2.54592246126972        1.36976765723280
C           -1.48950223756332       -1.36315461172309        1.27575532792009
C           -1.03246271807538       -0.26003904090669        0.61980049787644
C           -1.62419254207849        0.90676010768278        0.38729198757149
N           -2.81955830552410        1.39246750237762        0.57415129533739
C           -3.91398444192495        0.85853402056776        1.02290326567451
C           -4.19690834721677       -0.37576459583087        1.47494294924320
C           -5.38627162981931       -0.87828411602237        1.84668387255219
C           -6.62365932079499       -0.47292684668202        1.61220177825639
C           -7.11766750209323        0.37901049849707        0.72647775938408
C           -6.50494617508326        0.97358819685216       -0.27920561068514
C           -7.06326402732062        1.86517319492666       -1.21393373236176
C           -8.36894883112238        2.25189235162827       -1.15799005604985
C           -8.87566832074634        3.08749709632459       -2.05043856615038
C           -8.13006452058257        3.57229099964382       -3.02487906265610
C           -6.83848778250922        3.22412871427955       -3.12949960827864
C           -6.29797747143805        2.38337342234893       -2.24296986615099
C           -0.75860590343514        4.23316342756769        0.15979869758843
C           -1.96067590788154        4.12531936588521        0.27711749809465
C            0.00049834123805        4.75405910277284       -0.75358211195930
C            1.30565531985024        4.65003280448111       -0.58198536708400
C            2.20167796123329        5.11172246061383       -1.45754445567486
O            2.06014983064810        5.69311890681789       -2.53682758373051
N            4.07128099361669       -0.49082191046400        1.95665270102361
C            3.56574935419385       -1.47125311139662        2.54369997269471
C            2.43547203086874       -1.54446079359246        3.14134705070538
C            8.01270120391592       -2.60253357457024        3.89131788627088
C            6.88176929050565       -1.78515779755683       -0.82862010800518
C            7.87065885817692       -1.08546824404915       -0.83901818221244
C            5.65460602530136       -1.60593863821959       -1.04266458922938
H           -0.68262808578014       -7.13850661959742       -1.08475583094039
H           -4.33624208324532       -5.57579485260358        0.09993523941901
H           -5.01130708933065       -1.87649514473719       -1.56354816100581
H           -0.33421024528783        1.07163953664362        8.15374827906296
H           -5.40620544880052       -1.72848647257106        6.30529281713136
H           -9.39151063346165       -0.87361904328566        5.17793503006714
H          -11.27406340564976        1.52968357959447        2.17220182076688
H          -13.63011332629668        2.60382695444042       -2.20251900787771
H          -11.86521099255962        4.19075341612713       -5.84587202072444
H           -4.57819268714378        5.68590585064814       -6.71138135927001
H           -0.65982715273461        4.19650620665508       -2.07836558529191
H           -3.34260524277801        4.82750293475980        0.35084689575488
H           -0.52958363101623        6.23821274539928       -0.88275081325520
H            4.97342883119342       -1.06128758513942        0.35494873989329
H            3.08909429029105       -5.48183754790064        0.26180805526204
H            2.68840832956855        2.43931660451847        5.29009270535577
H            6.63927120814562       -3.67515297533255        5.67512086595009
H            7.88101654967166        0.19863264279657        0.16860069413714
H            7.40049502694906       -6.06824962591520        0.73858365925686
H            9.33519416037251       -1.70465445209448       -0.41667096417839
H            5.32099963109577       -2.01223268523525       -2.62500588334288
H            8.36558061168591       -0.38236589340462       -2.21918641660734
H            4.48105218180766       -2.72846287226091       -0.73541989441893
H            5.49325029891279       -0.03794800013215       -1.54023999552744
