66
 energy: -15.392488655977 gnorm: 0.000791914275 xtb: 6.5.0 (97a52f5)
O            1.12046587272951        0.28991673766544       -0.25121007048254
C            2.33361686393572        0.26519020580669       -0.16244896313380
C            3.08561358118407        1.52826190264661       -0.19419425998932
C            2.42775830630431        2.72447455218498       -0.34060623144281
C            3.12677694039482        3.92855805455948       -0.36759404747594
C            4.48602425705455        3.94137493271604       -0.24737855050035
C            5.20945537468086        2.74111935745931       -0.09460475789797
C            6.63073945323311        2.72003174283691        0.03292736160812
C            7.38202633668147        3.90588317982562        0.00894977784897
C            8.02892678016265        4.93973613346169       -0.01759763931756
C            8.74614809357653        6.08467304301440       -0.04909583295734
C            9.39357327508894        7.11816850571762       -0.07710786212436
C           10.12979506533719        8.31327499968970       -0.10788718213858
C           11.49547340122149        8.27054151675574       -0.27941782108342
C           12.25750424254843        9.43181428668452       -0.31303952374097
C           11.67434553841334       10.66856134512981       -0.17878448924836
C           10.27515969349583       10.75894741006440       -0.00348966150447
C            9.65308036118998       12.02182352917881        0.13356123967595
C            8.29269962913847       12.08911276878750        0.30673510590809
C            7.51719208762405       10.93323326380361        0.34866780991285
C            8.09853955188829        9.70578857434938        0.21595276248326
C            9.49107368106334        9.58142852486671        0.03536359733331
C           10.45771776898203       13.25140962471014        0.08257094862303
O            9.90321051288837       14.33084777132463        0.16964465687821
N           11.86042904056284       13.14252369525606       -0.07463459415340
C           12.65339243239417       14.33222714736542       -0.10257147747600
C           13.78863789064971       14.42193598769789       -0.90283395124265
C           14.55237294951816       15.56592371716245       -0.92715752560003
C           14.19836947895570       16.65048455051738       -0.15154872182930
C           13.07662040893911       16.58310285110041        0.64876442209976
C           12.31475922957181       15.43789574797284        0.67176984262069
C           12.49715129190871       11.88508562614323       -0.20727771540637
O           13.70323676369251       11.78556716502308       -0.33609013173445
C            7.26890769715402        1.50859322773983        0.17958426473099
C            6.55881737869484        0.31464122172318        0.20313845947542
C            5.19040599531976        0.29924598053606        0.08157995846605
C            4.49461287497685        1.51998346197500       -0.06884768198854
C            4.45735001354764       -0.97337157459827        0.09999790420684
O            5.07445423972698       -2.01638438814267        0.21161340021578
N            3.04724933833415       -0.94897632804776       -0.02122660609815
C            2.32556458908741       -2.18329608416808       -0.00186547289312
C            1.18975274724570       -2.36263701420612       -0.78597633139319
C            0.49543684669217       -3.55011966927088       -0.76998578357265
C            0.92082451365163       -4.58856754097579        0.03262617437477
C            2.04450379396472       -4.43185516307637        0.81769631985194
C            2.73778148191479       -3.24378122780348        0.79968121945514
H            1.35521040787918        2.71487119624778       -0.43337029363381
H            2.58825025002848        4.85468826520790       -0.48339386935748
H            5.02226751811116        4.87376341941243       -0.26805029278375
H           11.97496964574891        7.31266998291527       -0.38755922842994
H           13.32477930360858        9.37847980849312       -0.44410477277636
H            7.83335190154984       13.05748792443947        0.40837009706448
H            6.45121569071622       11.01152280162170        0.48562895988321
H            7.49591683867365        8.81521351767056        0.24826366977910
H           14.07048971996675       13.56659876976089       -1.49188946503616
H           15.43061871412620       15.61307625711206       -1.55010281312250
H           14.79622484893791       17.54689933069682       -0.16972278124547
H           12.79497667568458       17.42995773268191        1.25315130281418
H           11.42932840017663       15.38611786153898        1.28112378580433
H            8.34117421580717        1.49531292978458        0.27549896731939
H            7.07532541370008       -0.62326002522979        0.31547044816427
H            0.85268226167974       -1.54297048717453       -1.39641823288892
H           -0.38388730268549       -3.66788207555180       -1.38206854360374
H            0.37743371743116       -5.51906072127683        0.04572867907767
H            2.38221046039943       -5.24228433661643        1.44278468605787
H            3.62579365310100       -3.12213550489588        1.39533735758022
