130
 energy: -24.252311477068 gnorm: 0.000152263591 xtb: 6.5.0 (97a52f5)
C            0.43808218405683        2.83174420992695        0.23243597105200
C            1.69435732903438        1.98719409538760       -0.05731680474229
C            2.76911148321593        2.34197144263146        0.98746276737334
C            1.31833091967286        0.49895607166490        0.07121550420355
C            2.24806526691071        2.25218942959260       -1.46650076532973
C            3.37939310776458        1.57055662039686       -1.89957710443236
C            3.90535600389744        1.78212805717140       -3.15371496110778
C            3.31627819201907        2.68930657606696       -4.02668677279364
N            3.87598023491827        2.93092406156515       -5.32626106747890
C            4.47260446991794        1.84778700134967       -6.06267742862251
C            5.61517236818599        2.06609348890194       -6.82433950947510
C            6.21009145051040        1.03570061681168       -7.51588280523188
C            5.68232974868189       -0.24988056374054       -7.49058362905942
C            6.41549614506479       -1.39705528997196       -8.20562706950789
C            6.84096457595734       -0.96115947326856       -9.62208596848579
C            7.66695884191072       -1.76851382796027       -7.39070752806707
C            5.52013299452947       -2.64518856556104       -8.33881059053438
C            4.53388932181115       -0.46148131895051       -6.73377543598573
C            3.93780438490582        0.56521177813538       -6.03478369872051
C            3.81524177707847        4.21959971110874       -5.95036335838430
C            3.40717981574906        4.28555033654373       -7.27262520273122
C            3.38479051977720        5.45532406155472       -8.01837391177640
N            2.85318912658842        5.40393083285634       -9.34212171062492
C            2.73349599782186        4.13281500189962      -10.01010009384276
C            3.77870829368063        3.21471843814300      -10.01860976514985
C            3.61439655794940        1.96345437554834      -10.56979589810444
C            2.40727618841396        1.58371218986821      -11.14745499337252
C            2.17604955303762        0.18731604589849      -11.74658885856611
C            1.88012409983296        0.32140545344091      -13.25155153158035
C            3.40675871012803       -0.72108973087261      -11.56853215874239
C            0.98098371198531       -0.48067452631250      -11.03936434520759
C            1.37796909969869        2.51706674405315      -11.16822623533146
C            1.53427381297024        3.76544466421816      -10.61095758503832
C            2.14378607892955        6.51434944321102       -9.92359274603403
C            1.22818468027793        7.25483924591639       -9.18332787674225
C            0.57590855508167        8.33007960396644       -9.74413287112651
C            0.80546119795465        8.70237166706394      -11.06480508754644
C            0.11605180449986        9.91224260464132      -11.71559702556398
C           -0.71077317028900        9.43938210269597      -12.92584731165008
C           -0.82829472671630       10.63069769015137      -10.73199924410900
C            1.18650000906104       10.91788259729623      -12.18055972050346
C            1.70401455633965        7.94336351125833      -11.80571320902767
C            2.35948056914597        6.86802025595652      -11.25075594640914
C            3.85977879335669        6.65258003329726       -7.40776319899603
C            3.99349990635444        7.87602153495717       -8.11740110899269
C            4.40982598682004        9.01725841759432       -7.51401192685514
C            4.75602874024493        9.03164171969340       -6.13407756707461
C            5.17211005809981       10.19645620935662       -5.48080338869398
C            5.53077325910555       10.20114172077265       -4.14026402855569
C            5.96693300243546       11.52018228174651       -3.48107660752406
C            6.31922912689476       11.32894670574266       -1.99257692139307
C            7.21035459394867       12.06649963984278       -4.20744992849988
C            4.81891373656980       12.54270553162089       -3.57884318561906
C            5.48487074120108        9.00271988475980       -3.44040249254151
C            5.07798521599212        7.80780713217653       -4.04450280267427
C            5.05232601236524        6.57241449186303       -3.33745643386168
C            4.65309402984222        5.42866822270832       -3.94737849073797
C            4.22278434454276        5.41429237883205       -5.29929272666460
C            4.24812156095395        6.62308777657592       -6.04100389639333
C            4.69140899574128        7.82080553903595       -5.40603503218984
C            2.18475478185582        3.37461668501943       -3.59949564678534
C            1.66233183811210        3.15916767293210       -2.34368887576750
H            0.05863802412929        2.62869349773695        1.23387656322743
H           -0.35970395851345        2.60368836155743       -0.47412019781775
H            0.65926932473395        3.89729900964977        0.17442626217598
H            2.39730455449589        2.18154595826114        1.99933355458283
H            3.06302680446935        3.38761316305921        0.89783418812629
H            3.66220205160658        1.73123416977055        0.86080784244989
H            0.90376057905052        0.28509514688158        1.05623444969189
H            2.18668622095596       -0.14332351698082       -0.07035010219968
H            0.57337847662534        0.22410743300159       -0.67531409555748
H            3.85451493756056        0.86481826692290       -1.24031691299954
H            4.78875251541184        1.25484392147766       -3.46974089498714
H            6.03837104860133        3.05533644398053       -6.85055877987674
H            7.11170252242681        1.22758932758623       -8.07066801501057
H            7.56917389653405       -0.15209062417963       -9.59273023202232
H            5.98172501031024       -0.61943534032149      -10.19601762296350
H            7.29709064026689       -1.79026188084450      -10.16292300518447
H            8.34012710136392       -0.91640814064705       -7.29971748942122
H            8.21559405500926       -2.58194778374185       -7.86521960032106
H            7.39269204400342       -2.08655829836821       -6.38501914026833
H            4.58797468662716       -2.40506110237673       -8.84925318863166
H            5.28065938791420       -3.06686822908624       -7.36313715648370
H            6.02349885993983       -3.42288960396357       -8.91315002664386
H            4.10196314849888       -1.44503525577582       -6.68183788503983
H            3.04754535721731        0.38659660900498       -5.45704416969620
H            3.07747039572129        3.37326024532554       -7.73084996125659
H            4.71606414824347        3.49092370291232       -9.56724938029044
H            4.43525486220816        1.26988417457610      -10.53810864461774
H            2.70969502621272        0.80687279454009      -13.76527457722379
H            0.98407176713048        0.91563121039768      -13.42697599322580
H            1.72644517735455       -0.65654257710538      -13.70747746350284
H            4.27743972547243       -0.30812434476245      -12.07727154008160
H            3.22143693408698       -1.71131682799035      -11.98463979194256
H            3.64459432759957       -0.84649525597974      -10.51288865299406
H            0.06445486867414        0.09056867149537      -11.18094672668527
H            1.16389221838420       -0.56069345447810       -9.96788632097243
H            0.80958216731871       -1.48443876148614      -11.42786272422445
H            0.43686827579514        2.25479699269383      -11.61987581807945
H            0.71859524378456        4.46739961761826      -10.61274031950297
H            1.04726518140723        6.97941055426961       -8.15871092450903
H           -0.11700310469857        8.89024990113543       -9.14183187290883
H           -1.46119093996690        8.71112503654827      -12.61883462554711
H           -0.07859674232595        8.97147007253200      -13.67954039680783
H           -1.22588825766335       10.27635778320262      -13.39705887660150
H           -1.61908962445246        9.96404543729869      -10.38873280631705
H           -1.30429153083846       11.48721021086716      -11.20937945432409
H           -0.28327823269904       10.99937685820252       -9.86319682039508
H            1.85073885545734       10.47583676622810      -12.92217690230652
H            1.79617153342763       11.24762245920652      -11.33947184513212
H            0.72622563448659       11.79805843738904      -12.62921815217651
H            1.89436322539701        8.20487187216959      -12.83225988843259
H            3.05794383118573        6.29250046427339      -11.83333049135499
H            3.76260228959351        7.89110926991996       -9.16611683041871
H            4.48782744698676        9.93189332382664       -8.07646846723001
H            5.21175175928706       11.11152917418434       -6.04325837043320
H            7.14476862944706       10.62803779084068       -1.87090656754241
H            5.46242392895498       10.95726242262286       -1.43093541097598
H            6.62202033517005       12.27449014438534       -1.54281227699088
H            8.02682977130242       11.34576677104073       -4.16788281693731
H            7.55501905473004       12.99254983474655       -3.74761241892666
H            6.99803050840708       12.27472647967861       -5.25535474738235
H            3.92352089989167       12.16487777236750       -3.08563971340822
H            4.56473225390169       12.75605197178664       -4.61633652189278
H            5.09374701896432       13.48418552864006       -3.10355698968737
H            5.76700021104011        8.97252367454805       -2.40449383446126
H            5.36406263277004        6.55873579889100       -2.30716880711623
H            4.65729963814215        4.50386514687332       -3.40052714864384
H            1.72417259433134        4.08120716927649       -4.26797970385178
H            0.78738820477591        3.70751384391124       -2.04278490393981
