54
 energy: -11.661819788745 gnorm: 0.000724755724 xtb: 6.5.0 (97a52f5)
O            0.98549001836630        1.72568880961532        1.39472354088235
C            2.11361786960050        1.40542030596592        1.05481929673419
C            3.01509238588036        2.36720095267192        0.42553980364809
C            2.57218263558789        3.64916860578778        0.19336179654148
C            3.39758326854545        4.58951081775544       -0.39836462974420
C            4.67974348689802        4.25743739407216       -0.74569479500251
C            5.18953347425695        2.96904884907760       -0.52040985532461
C            6.55445041301513        2.64149359146255       -0.82316886473819
N            7.45211893218286        3.64468552166816       -1.06271644752987
C            8.88829773044775        3.67591246629046       -0.77452869360002
C            9.26731921672955        4.93978388908922       -0.06793954157217
C            9.21395477000338        4.97877693576208        1.31254680031069
C            9.50123497675961        6.14890498955296        1.96931357803830
C            9.82345160859857        7.24440443459202        1.21007253135718
C            9.83628324841421        7.11675916430840       -0.15838164712832
N            9.56042561940120        6.00217242200816       -0.81392326696527
C            6.95491112055834        1.26352353269198       -0.76364994124257
C            8.17484580295987        0.83454582144243       -1.31727538903259
C            8.58057231124509       -0.46662934446642       -1.23699618483323
C            7.77283841532693       -1.40739391801492       -0.60760062656790
C            6.56226020647084       -1.03571780938015       -0.10287006586642
C            6.09365458356493        0.29224144299337       -0.18055823509071
C            4.79067475455163        0.66422410377367        0.27046659007231
C            4.33494191841192        1.98644086974585        0.05901728911508
C            3.89503005005419       -0.30112979685380        0.89945367262773
O            4.22594458433087       -1.45901973226486        1.12123128711785
N            2.60016665917426        0.11271144912364        1.25587498237384
C            1.69819496730213       -0.86692854658656        1.84657648718908
C            0.92108982093384       -1.63353693981886        0.82293936692071
C            1.60862818352371       -2.29657717317713       -0.17407713817935
C            0.92037177058734       -3.00210095009306       -1.12731501121924
C           -0.44767338336538       -3.02125142594965       -1.03775399288018
C           -1.04957715855757       -2.34293849543028       -0.00486539333755
N           -0.40611296297967       -1.65715552343968        0.92414312155275
H            1.56623622081404        3.90731775851105        0.47741863668312
H            3.02837499621770        5.58487771415901       -0.58370975120209
H            5.29149798205601        4.99839717825715       -1.22546198696653
H            7.12658531345820        4.60588907738221       -1.05650852911501
H            9.44570904430867        3.60303487388943       -1.71305836770787
H            9.16028554752887        2.81496550754647       -0.15783237698622
H            8.93834852583025        4.09503605836770        1.86164230129225
H            9.47054234964843        6.20597503696469        3.04500917961582
H           10.05885579573026        8.18671404902295        1.67705853088050
H           10.08361490999101        7.97602158907554       -0.76374947431197
H            8.77568205958720        1.53721367755970       -1.86409491018749
H            9.52120890129932       -0.76884275214063       -1.66767671520003
H            8.09792901542033       -2.43250153641518       -0.53762335237313
H            5.93765077484366       -1.77630227874360        0.35923411889543
H            1.00745090521148       -0.33786378807869        2.50903401666702
H            2.28552707953536       -1.55288971755555        2.46357624832468
H            2.68330318940869       -2.25305601810583       -0.18575240872942
H            1.43605623001324       -3.52316565751897       -1.91703352872453
H           -1.03798087847552       -3.56001182303336       -1.76072871398055
H           -2.12628926123605       -2.35617566312457        0.07513665849545
