66
 energy: -15.379673807158 gnorm: 0.000681237356 xtb: 6.5.0 (97a52f5)
O            1.18466824017184        0.02518654028488       -0.03893970965759
C            2.39965254235482       -0.03481807363274       -0.04138439284174
C            3.18522946614466        1.20751185542578       -0.08890842750652
C            2.55992279404018        2.42853243056636       -0.14541772799379
C            3.29592555932338        3.61216427024218       -0.18555061521777
C            4.65951978803631        3.58077692773201       -0.16960522200874
C            5.34735325965129        2.34994681122150       -0.11160333777751
C            6.75476462941374        2.27304976411939       -0.09504747376171
C            7.40242006849616        1.06257020051022       -0.03948323314903
C            8.81243296548864        0.99780018541584       -0.02983039623997
C           10.02949642513466        0.95132251172860       -0.02001209292773
C           11.38812439297161        0.91460185234511       -0.01223626623941
C           12.60596678127304        0.89716886155948       -0.00505118049880
C           14.01741354511709        0.89494815028348        0.00521084792948
C           14.72638278710443       -0.31657009410254       -0.05997393043621
C           16.09689219345541       -0.35172858706337       -0.05134092016116
C           16.82336000608451        0.85921497157480        0.02630091261841
C           18.23699144278309        0.85094515593627        0.03875696270319
C           18.91620693422076        2.04187411540956        0.11291457104014
C           18.23382594265452        3.25619197309614        0.17712155281763
C           16.87017376434017        3.28567565483472        0.16732031840441
C           16.12807786896719        2.08780007992429        0.09179716561465
C           14.71871265089497        2.07407288754496        0.07921976298569
C           18.96632891141628       -0.42397496316393       -0.03483104412005
O           20.18273743423709       -0.41795953653292       -0.04300654888129
N           18.22547403490858       -1.62862472074259       -0.10311809224135
C           18.92683445017506       -2.87341214490992       -0.16083701693370
C           18.44905440974065       -3.93213802864057       -0.92694369243775
C           19.12064281562474       -5.13169824980058       -0.97727102399123
C           20.28742281975463       -5.30169020962838       -0.26086024660143
C           20.77849524735255       -4.26411360305058        0.50432089790205
C           20.10612596635645       -3.06483116850397        0.55257512251561
C           16.80974462105059       -1.63606513314134       -0.11587846481698
O           16.17206403785254       -2.67049316199648       -0.17116432534137
C            6.63968706742162       -0.11676237561540        0.00405738631491
C            5.26913006827059       -0.09057907248058       -0.00958461673714
C            4.59773857008818        1.15265261982779       -0.06975143823651
C            4.49978876458807       -1.34283771246487        0.02989114894933
O            5.09058916902866       -2.40536478019682        0.07137682318691
N            3.08596134898771       -1.27227567604774        0.00929759840160
C            2.32962332042666       -2.48528660461267        0.04029984810804
C            1.14746879398005       -2.61074134502294       -0.68281450061777
C            0.42004219404379       -3.77812252106064       -0.65708317503132
C            0.85812359758622       -4.84909676821758        0.09415669393808
C            2.02741024718557       -4.74500044741128        0.81893611760663
C            2.75382443750654       -3.57701736473197        0.79138036909343
H            1.48375260405145        2.45598258748602       -0.15659612508211
H            2.78053608544958        4.55746511577616       -0.22909724402796
H            5.22577166154628        4.49531030442336       -0.20082642229054
H            7.33281819643761        3.17870363430434       -0.12895789529714
H           14.18387902052544       -1.24323958732199       -0.11706384728110
H           19.99254995627685        2.02141037281235        0.11858109966330
H           18.79081693823126        4.17685962632094        0.23416608876262
H           16.34522441490866        4.22373776764393        0.21674093930855
H           14.18169781438193        3.00395482217488        0.12884939447678
H           17.52866904284084       -3.79919013105591       -1.46853837090311
H           18.73290276066025       -5.94118074815434       -1.57386050750540
H           20.81347816343768       -6.24137840746753       -0.29896141357466
H           21.69169730619023       -4.39252841937081        1.06215289381988
H           20.49321412383900       -2.24568342865687        1.13319148606271
H            7.13996733889202       -1.06762827897670        0.04648587325226
H            0.80223777202386       -1.76565129938797       -1.25255901688504
H           -0.49469494447149       -3.85497972894080       -1.22176434581537
H            0.28877762101455       -5.76377667924116        0.11507337336104
H            2.37410350783231       -5.58084102065077        1.40432469207089
H            3.67591424021833       -3.49532197855609        1.34008436016960
