40
 energy: -8.792227558538 gnorm: 0.000365752982 xtb: 6.5.0 (97a52f5)
O            1.09200253260704        0.90020300929598        1.61373473378869
C            2.21723566635547        0.67228069627587        1.20524795331052
C            3.11753444350136        1.76087669467158        0.81709373340199
C            2.68836205449762        3.05868261073074        0.89401445645303
C            3.52488161824056        4.12131548376091        0.54000813896565
C            4.79280454553276        3.88306470704688        0.11319473795627
C            5.28893439351951        2.55815042082564        0.01616171747367
C            6.58697449506952        2.30346377791244       -0.40991434185225
C            7.07446603768580        1.00381802699602       -0.50336646366201
C            8.40579368501543        0.75261290445476       -0.92889273547668
C            8.88127744439395       -0.51489689949103       -1.01952383707150
C            8.05727556734867       -1.60173097544098       -0.69347397806750
C            6.77891273515886       -1.39697750001433       -0.28242871777144
C            6.23036707432089       -0.09633694915483       -0.16603196921405
C            4.90345367694107        0.14354696036212        0.26984989579630
C            4.43852287685911        1.46827914779448        0.36662652752913
C            3.99230803107615       -0.95557051343481        0.62809694702991
O            4.31700594353226       -2.12772875711270        0.54220383454224
N            2.70420174612959       -0.63224238791257        1.08308564529803
C            1.80997915290335       -1.72815075573456        1.42932741213335
C            0.76178162922192       -2.00006297602507        0.39556437018547
C            0.94331184093046       -1.54201204893913       -0.89513384984914
C           -0.00947441469058       -1.79325497240879       -1.84924052827352
C           -1.11537696977997       -2.50961972675241       -1.47012891346274
C           -1.20776467551960       -2.93795582903808       -0.16740807540491
N           -0.30271558901291       -2.70823287198161        0.76786145501310
H            1.68584192065605        3.24949364683854        1.23677997956624
H            3.15952456333192        5.13264158673186        0.60956622304191
H            5.43753256911841        4.70149757452409       -0.15628009226583
H            7.22777777673485        3.12670788317884       -0.66826688499085
H            9.03781074401440        1.58750424615990       -1.17781016752902
H            9.89423474355576       -0.69144749459381       -1.34183985789829
H            8.44524261264109       -2.60416776996961       -0.77084166866675
H            6.15907456780422       -2.23834311436484       -0.03532513635221
H            1.33019727275610       -1.48758978457454        2.38176695896973
H            2.41329435474938       -2.62729800297176        1.58246318164015
H            1.83104928321696       -0.98428163376979       -1.13618232784054
H            0.10627814318235       -1.43842428869599       -2.86028893439904
H           -1.89532659913337       -2.73345807575613       -2.17937688120796
H           -2.07396749446444       -3.50553604941394        0.13915745917067
