31
 energy: -6.815569992241 gnorm: 0.000818259009 xtb: 6.5.0 (97a52f5)
O            1.12314362784831       -0.11872480179350       -0.12360772579506
C            2.33628704497479       -0.08581826714225       -0.09171903011933
C            3.18146196734028        1.11366327763956       -0.00363777473537
C            2.83015218954783        2.45369957813010        0.03701060695538
C            3.83157282386456        3.39758317154472        0.08986614800857
C            5.17266820863495        3.01922874094733        0.09938235439585
C            5.53313536434658        1.69283809033706        0.05914651421333
C            4.53082121696444        0.72837832259287        0.01306731156838
C            4.56182903304694       -0.71524108734758       -0.05264658579176
C            5.41137703759837       -1.82079272132785       -0.10979315162463
C            6.86749257848344       -1.86753355619075       -0.05208738560391
C            7.55948581118096       -2.74819493925386       -0.88024613360193
C            8.93195887171895       -2.84701000271031       -0.84622712005096
Cl           9.75672318681655       -3.95759788572251       -1.92060265020818
C            9.64458891866213       -2.05957778550594        0.04268701214761
C            8.99436952211605       -1.19213513817981        0.88775754250667
C            7.60240910322942       -1.07674524908326        0.86805925085126
O            6.93941359214109       -0.23795510310058        1.73462899530287
N            4.58680083594748       -2.93270448772225       -0.24963220282522
C            3.24726296397917       -2.56666728677831       -0.25608046489340
O            2.28222844097109       -3.30476318912821       -0.34322176746545
N            3.24111262057870       -1.16751891530075       -0.13981371967511
H            1.79055223715874        2.73249460667404        0.02162778569683
H            3.57459445410998        4.44398623304402        0.12152958236036
H            5.93775970457179        3.77728353383645        0.14008894684392
H            6.56476198234038        1.38866294287836        0.07336083363074
H            7.01294210314524       -3.35924006555240       -1.57612908829588
H           10.71843233917613       -2.14361335197367        0.06338496225751
H            9.56049818066190       -0.59331520613677        1.57846542014698
H            7.55399892118298        0.15029949095146        2.38378639049271
H            4.89984511766170       -3.89629894858951       -0.26624485669001
