31
 energy: -6.780024191669 gnorm: 0.000940110706 xtb: 6.5.0 (97a52f5)
O            1.14895955313966        0.03610057092205       -0.00139714941487
C            2.36232547373033        0.08419086354371        0.00996759500424
C            3.19147673297746        1.27999743236510        0.20263337305272
C            2.81126598474208        2.60134272499182        0.37748213722346
C            3.79060518137325        3.56389615686771        0.46780778237355
C            5.13765173256788        3.22304487975992        0.36860880180159
C            5.52728386097774        1.91604999356747        0.19323931809938
C            4.54917674951513        0.92461507320968        0.13062493886601
C            4.60112926060930       -0.50826420535731       -0.07312138105168
C            5.45361137775989       -1.59911725890161       -0.26438529761549
C            6.89946556111035       -1.66928090646903       -0.17478098714646
C            7.63144438938702       -0.75485939014332        0.59063374071475
C            8.99920937271643       -0.83239319994925        0.67853906829027
C            9.68179929630343       -1.83639709828260        0.01104730575654
C            8.98813696379839       -2.76910990827679       -0.72214675187198
Cl           9.83422602891988       -4.03158169219356       -1.53321654951747
C            7.58758179181596       -2.71684002292064       -0.82211424348671
O            6.90862665001645       -3.67770746757850       -1.53572693479329
N            4.63472537665234       -2.68806799446923       -0.52364053208296
C            3.29271417955373       -2.34172995507403       -0.46672811164896
O            2.33579322894342       -3.07251509389093       -0.65025673627281
N            3.28057281878566       -0.97035309229808       -0.16605437572607
H            1.76576165871428        2.85236677952600        0.42855632626368
H            3.51174843400331        4.59624922155549        0.60365161399900
H            5.88516298788447        3.99779967745914        0.42090355243602
H            6.56471753572373        1.66623394657782        0.06695383981909
H            7.10086760562607       -0.01418567006484        1.16111499896828
H            9.54363872100477       -0.11765861317169        1.27402977757297
H           10.75518657010645       -1.90719457222802        0.06845930086115
H            7.54066313577173       -4.30697286957907       -1.92640564001628
H            4.98511178567386       -3.60149830945140       -0.80639878043993
