58
 energy: -12.763673562873 gnorm: 0.000980123323 xtb: 6.5.0 (97a52f5)
O            1.12210845792821       -0.09901786272610       -0.49883130508600
C            2.31283889117798       -0.10591396256704       -0.23884245234212
C            3.02942757279132       -1.35948973562630        0.02773436367915
C            2.29093416935873       -2.53047406621276        0.14030356567201
C            2.89256977976761       -3.72063680441603        0.46693945971054
C            4.25166649103858       -3.74864991060836        0.70391570199389
C            4.99553885440464       -2.59897072016644        0.58728893103608
C            4.42700822658850       -1.37596964915637        0.21390681159086
C            5.20943097581288       -0.13177540669851        0.06564550595477
C            6.61602043707015       -0.09737676215162        0.02498840753736
C            7.44933699241095       -1.32564289869681       -0.06284679117827
C            8.24497661334639       -1.72898130852975        1.01046722346269
C            9.02988421762464       -2.85607927358971        0.91809287920813
C            9.04379923460708       -3.59686626400323       -0.24692944097478
C            8.27119609150363       -3.20699635740519       -1.32270911536585
C            7.48211450014205       -2.08194414942709       -1.23498840257070
C            7.31333029953832        1.14703202544699        0.02209836676374
C            8.80126248232218        1.16079419960129        0.01807790544583
C            9.51195729873585        1.60597182258917        1.13192814373292
C           10.88884699627139        1.62358796100846        1.12644057939274
C           11.58224854483239        1.19830357541317        0.01105011709948
C           10.89496771390714        0.75593904304149       -1.10145885534481
C            9.51812226389461        0.73774755845120       -1.10042424634386
C            6.62023496705575        2.35494259549590        0.02663608555948
C            7.36182143472062        3.64331675172793        0.02679431256659
C            7.30024243547542        4.50477121341025        1.12315791320456
C            7.99852324606369        5.69134584993890        1.12490981712546
C            8.77146228841705        6.04238776675449        0.03594734788601
C            8.84424542608205        5.20303310620618       -1.05787790048978
C            8.14727365290888        4.01597695374480       -1.06478224869083
C            5.19579732400520        2.34186395939806       -0.02441044320706
C            4.46896698875816        3.54604845078553       -0.10668052891923
C            3.10863102051456        3.54521278574876       -0.20754680351975
C            2.41927435788613        2.34080514776349       -0.24068845477697
C            3.08313679922329        1.13941271082285       -0.15820878170713
C            4.49922204157175        1.10759492629543       -0.02959742212845
H            1.22719367767609       -2.48396723380409       -0.01871563704109
H            2.30587778469270       -4.62048312344561        0.55433262630386
H            4.72889690040594       -4.67408298473908        0.98258037087203
H            6.04099078555768       -2.65050613253901        0.81552917209151
H            8.23453894033171       -1.14464118364292        1.91440748204116
H            9.63703200319046       -3.15897125160211        1.75542571258097
H            9.66063394655566       -4.47778980410365       -0.31777733590819
H            8.28624466588897       -3.78382649200670       -2.23296441839690
H            6.87961836989136       -1.77144580888088       -2.07102061928494
H            8.96625611089278        1.93793692723532        1.99824032701706
H           11.42583835620647        1.96991184531609        1.99414269390844
H           12.65991688694508        1.21183373218839        0.00851938213018
H           11.43675952487399        0.42414494296300       -1.97189523479286
H            8.97760321155215        0.39518409913951       -1.96576553554065
H            6.70311206105918        4.22327391131818        1.97333313957911
H            7.94437866085373        6.34596545013444        1.97929494776137
H            9.31913183772298        6.97057234414279        0.04014195538639
H            9.44867645399836        5.47698871222899       -1.90704966374286
H            8.20200830651369        3.35782257182531       -1.91463424717936
H            5.00419419730659        4.47881502082917       -0.10307047406785
H            2.56860903203677        4.47555121612325       -0.27262995182702
H            1.34739919809298        2.33214996965753       -0.33943493786963
