117
 energy: -21.820851661213 gnorm: 0.000615969946 xtb: 6.5.0 (97a52f5)
C            0.37904586276692        0.19338897224375       -0.09179285238948
C            1.90630005322705        0.37053552085354        0.01476205837295
C            2.29841862472724        0.29937443520029        1.50274560290006
C            2.58421600175515       -0.77817068021033       -0.75493035576553
C            2.36786230674936        1.71421147436508       -0.57143030018429
C            3.71516047946087        2.05313892971799       -0.53556928064991
C            4.16758413078511        3.24449604655096       -1.05559643989301
C            3.28369907411030        4.14938035854705       -1.63269940542800
N            3.76127258587521        5.39075799947344       -2.17506259980792
C            5.00502663472788        5.40812157157069       -2.89545101352827
C            5.92012343203986        6.44136785232475       -2.72651854615536
C            7.09506540583430        6.46447817504819       -3.44353210173111
C            7.40571808718590        5.46185078867036       -4.35464802517168
C            8.72041540438714        5.53347159426639       -5.14761672789663
C            8.76269327360571        6.84845512784071       -5.94917327207470
C            9.90814559028607        5.48504091724761       -4.16903508050571
C            8.85631628357980        4.36018182229559       -6.13781205005028
C            6.49504612983048        4.42203572513605       -4.50818835165642
C            5.31884719665169        4.39310472241146       -3.79270350216168
C            3.01166421709238        6.60099534105943       -2.00535727664338
C            3.10840042460983        7.63136347078664       -2.93839891702636
C            2.40640456600176        8.80390180334135       -2.76539341046982
C            1.59097292028619        8.96528181090099       -1.66887018978483
S            0.69509612955893       10.51079788462052       -1.47798368337494
O            1.48594786887115       11.63517353446643       -2.12309267821427
O           -0.73967114482074       10.26310041865966       -1.90968865953294
C            0.75425161338767       10.76202898006882        0.29960680630164
C           -0.38031899141593       11.18535842238979        0.95303937548468
C           -0.35988756186717       11.38385837885542        2.31600765914820
C            0.80122268229949       11.15076833071716        3.05021620174412
N            0.81762724667808       11.34194644854741        4.47090409735173
C           -0.39160003313107       11.19832611711468        5.23460193134883
C           -0.70084294289135       12.09992021407448        6.24691073295979
C           -1.86850516086724       11.97781846458349        6.96563285264733
C           -2.77002889558072       10.95129841992166        6.71029589436519
C           -4.07229374092153       10.86210349947977        7.52186195927526
C           -3.73654592153139       10.75499350129820        9.02136559146958
C           -4.91429392661961       12.12647224748954        7.26892582170709
C           -4.91085861299588        9.63136107299306        7.12502794208146
C           -2.45197388337728       10.04628591340133        5.70321532090182
C           -1.28650339505460       10.16501544927031        4.97924811500735
C            2.03270364216263       11.70256753586468        5.14711684825208
C            2.34129017450721       11.15376682222929        6.38678504517326
C            3.50158875202555       11.50088376628656        7.04088541288614
C            4.39668776254125       12.41052121615853        6.49063824639580
C            5.67902804262080       12.77373481884521        7.25586278251366
C            5.30395834694992       13.36811832926895        8.62649922282878
C            6.52894606357610       11.50519857604845        7.45654190682459
C            6.52628085751883       13.81095954644364        6.49329657232193
C            4.08249587965576       12.95931669080332        5.25187552679147
C            2.92391382709535       12.61435632741767        4.59211857433742
C            1.94060221457416       10.72469642766261        2.37003195487567
C            1.91668248775756       10.53973555907412        1.00484340425109
C            1.46793824310195        7.95177641912036       -0.74348559188909
C            2.17704256718219        6.78131058688078       -0.90393883000235
C            1.93505682929771        3.81324736921818       -1.67683609719901
C            1.48806320829962        2.61953240788598       -1.15523311980054
H            0.07084677027187       -0.76116715636538        0.33392385969583
H            0.05321275529075        0.20962064696262       -1.13126260130523
H           -0.14564519172650        0.98019923783780        0.44924426603019
H            1.96098222938240       -0.63505405804545        1.95014121208732
H            1.84881356573891        1.12132358358628        2.05892118337762
H            3.37802711049457        0.35821374887990        1.63227985775728
H            2.26701380810383       -1.74657242376809       -0.36931222249992
H            3.66868865141632       -0.72498091463208       -0.67054306839100
H            2.32852281433226       -0.73567379695729       -1.81319551825668
H            4.41926755442155        1.37063085579715       -0.09229942993749
H            5.21320919272511        3.49478387536766       -1.01525227035935
H            5.69617730798298        7.22358352951370       -2.02244470692239
H            7.78671468808716        7.27569745177347       -3.29685732198063
H            8.73256243209122        7.71580540191516       -5.29146459086614
H            7.91283509747013        6.91276226663852       -6.62794409574492
H            9.67408881859655        6.91391914469825       -6.54267000900989
H            9.88660486790156        6.32733631710392       -3.47904536064453
H           10.85620441075465        5.51741801431682       -4.70507055366026
H            9.88433588312416        4.56873409437776       -3.58007292222721
H            8.03732512258878        4.35706385229287       -6.85641881544371
H            8.86400711787385        3.40405112553175       -5.61563620589012
H            9.78698902987083        4.43499099061705       -6.69961902375475
H            6.70352959559483        3.62453696425939       -5.19878748924754
H            4.61783832889768        3.58842615384417       -3.92982702116231
H            3.73620210151656        7.49853310054042       -3.80181830393193
H            2.48885640574517        9.60383869829420       -3.48259797056895
H           -1.28012921861264       11.35810278129446        0.38610860344228
H           -1.24170181991434       11.72787194218908        2.82716403877507
H           -0.01670631153034       12.90481170047576        6.45115016270056
H           -2.09085040345769       12.69531969596918        7.73620207929235
H           -3.19694626827035       11.63365586189173        9.37138570966299
H           -3.11591757879238        9.88081831782593        9.21539302913286
H           -4.64377776014689       10.66376849098362        9.61790638700977
H           -4.38082254389318       13.02480662006486        7.57628981692769
H           -5.85125911198868       12.08860296355615        7.82374480896536
H           -5.15265359034350       12.22460398035005        6.21030726301971
H           -4.35683231471572        8.70864679826956        7.29447531405348
H           -5.20075213060704        9.67500353183510        6.07573743282477
H           -5.82500124239326        9.58029896587025        7.71586736741461
H           -3.12381319628527        9.23740171162145        5.47805291549844
H           -1.05078259692956        9.45409136668250        4.20672909838031
H            1.65959706569570       10.44571434679362        6.82453489574052
H            3.72003983395699       11.05898198203695        7.99746951072043
H            4.75174964367725       12.65110493455803        9.23216942245324
H            4.68097449618411       14.25358843311579        8.50433224060793
H            6.19503792589380       13.65634935070214        9.18331427467714
H            5.99472010047313       10.75934009545333        8.04330018188704
H            7.45714204252197       11.73650021758778        7.97821688389284
H            6.78394183879550       11.05686668557667        6.49681580518493
H            5.96916452662906       14.73422052547838        6.33757785345874
H            6.83881253175155       13.42587980650062        5.52323076755010
H            7.42694217151954       14.06064390820430        7.05350003420639
H            4.75028440024837       13.66744464676672        4.79468096976390
H            2.68818021395688       13.05639316695000        3.63988603816568
H            2.83978951022317       10.52980619701429        2.92745927081021
H            2.80017395339904       10.21464323411288        0.48095653882934
H            0.82060957969750        8.08534831901080        0.10717410369967
H            2.10169408922168        5.99775775733061       -0.17074489458996
H            1.24464486419254        4.49848509675695       -2.13676325379885
H            0.43884791700801        2.38932238610883       -1.20584064893692
