52
 energy: -10.694663859978 gnorm: 0.000462250853 xtb: 6.5.0 (97a52f5)
O            1.07068217202134       -0.36741339421098        0.42798212227739
C            2.27349410335521       -0.26486510710266        0.24172876852005
C            3.11300615285098       -1.45112878841648        0.03707260565259
C            2.52005897282166       -2.70807190949274        0.04675101296162
C            3.26496011578320       -3.84379740566877       -0.15394843264676
C            4.62736987176558       -3.74048579099739       -0.36915433254182
C            5.23418391744213       -2.50816595369596       -0.38040721858745
C            4.50106496227249       -1.33146766854918       -0.17783664402292
C            5.12693727948701       -0.01185678587357       -0.18162170140784
C            6.49243366633629        0.15702161984465       -0.39504839661361
C            7.08429382742642        1.39932899207149       -0.38128716693907
C            6.35295140997789        2.56352816867801       -0.14736732806660
N            7.01468598497165        3.79932316609312       -0.04509408691803
C            8.27977903119384        4.07306855931368       -0.76115412017997
C            8.32920258625144        5.51074737438971       -1.28048050168273
N            8.01098031896247        6.47611069320208       -0.20952323149118
C            8.88878380215828        7.52625623891765        0.16813296695046
C            8.94775424826289        7.97966547085967        1.48817999605681
C            9.79142206663411        9.00760673821261        1.84385085554152
C           10.59464672173557        9.60814370061643        0.89412067284713
C           10.55239353053590        9.17321864486425       -0.41606495350934
C            9.71207902460207        8.14435775128509       -0.77646308895339
C            6.74696820753353        6.19040027735851        0.49235420561330
C            6.77185839309784        4.77160848287766        1.04696289212661
C            4.92872236615873        2.44139411875776        0.01237742145388
C            4.09750688425995        3.56869004882751        0.09720345358239
C            2.74452173117079        3.44450122866365        0.26520135306071
C            2.16356593954435        2.18812679317946        0.33399311299027
C            2.92529842394217        1.04733689896202        0.20626295692274
C            4.33042342422344        1.15244518488937        0.02186876445006
H            1.45856639596344       -2.77442026678283        0.21300555268779
H            2.79064156076965       -4.81147938903444       -0.14504548932504
H            5.21304836367045       -4.63123419924702       -0.52820012409813
H            6.29385694515653       -2.45626145195394       -0.54939877272347
H            7.11357543667634       -0.70321097486217       -0.56372291606045
H            8.15040140369195        1.47509597171595       -0.50172018740392
H            8.37935182430790        3.36221753650902       -1.58792316403760
H            9.11070779259570        3.88308971976828       -0.07527182621563
H            7.61034870591217        5.65153522718948       -2.09305826513202
H            9.31848877166281        5.73774747279397       -1.68930813243695
H            8.34762615467517        7.49684700045416        2.23854635581543
H            9.82799231025578        9.34336719903999        2.86732821723206
H           11.25309422642215       10.41396147432132        1.17431118016393
H           11.17511905998667        9.64466951497232       -1.15873335399425
H            9.65968021109016        7.83242840881732       -1.80439110936729
H            5.93571447703530        6.30216563597772       -0.23293820953723
H            6.56589214013094        6.93707657649581        1.27129807055434
H            5.85973831477200        4.51543911597858        1.59437831114314
H            7.59106820719472        4.66946029478714        1.76529932377855
H            4.52883799234427        4.54581525055760       -0.01480151352189
H            2.12669918610654        4.32474433282716        0.33551372938970
H            1.10038138281523        2.08682820181591        0.46798036564252
