41
 energy: -8.312993667038 gnorm: 0.000195716331 xtb: 6.5.0 (97a52f5)
O            1.05101297764476       -0.00655844476000        0.43315900817930
C            2.26457814871762       -0.00703390616051        0.29957640531082
C            3.02035144378952       -1.26336637808452        0.24225011094958
C            2.33386507572770       -2.46798252367324        0.33334357683150
C            2.99990700691362       -3.66717983930423        0.28301983850035
C            4.37538117092919       -3.68136082951069        0.13990685126618
C            5.07349926986015       -2.50216566198695        0.04751316728738
C            4.42201938491468       -1.26289845497158        0.09357372280603
C            5.14368747057526        0.00272293382861       -0.00473472708569
C            6.52394107541632        0.05457262145987       -0.18180698766132
C            7.20470813540439        1.24794916762447       -0.25927732224969
C            6.55269621531618        2.47601025168006       -0.15403174014621
N            7.29428639002760        3.67146581260576       -0.14469127008575
C            7.14430282183267        4.71435693599536        0.89303570394245
C            7.31202981125842        6.09955338263096        0.27203253618923
O            8.56117603373369        6.20986539193050       -0.40231937369090
C            8.71619085066041        5.22502640046016       -1.41962467869138
C            8.57290487161952        3.80690765237921       -0.86465259881175
C            5.12053420702954        2.47037707022784       -0.03218249216256
C            4.37682120602464        3.65911899185586       -0.06768175935771
C            3.01306251539947        3.64770846803496        0.05098075430049
C            2.33626551470773        2.44641500495582        0.19055745438576
C            3.01378700709780        1.24701779315726        0.18822812870511
C            4.42851094938003        1.23379839304985        0.06061406583212
H            1.26340425529801       -2.44175528885831        0.44438010921048
H            2.45390987725269       -4.59348813915002        0.35444590505276
H            4.89972845978354       -4.62215006591882        0.10112114858566
H            6.14164561633450       -2.54229337470567       -0.05962448588685
H            7.08520889821096       -0.85874535798017       -0.25191595880128
H            8.27604357449779        1.23992804732459       -0.35432500379423
H            7.92347244520672        4.54815373351595        1.64287344084024
H            6.18975729982968        4.60070365415028        1.41563619385794
H            7.26854949635402        6.89544630844890        1.02675422318811
H            6.52145073982864        6.30208951595569       -0.45917893111785
H            9.69786346252903        5.38304064008620       -1.88473708649228
H            7.95924061601258        5.42015537533905       -2.18813536377825
H            9.38847255203376        3.58140693132410       -0.17176445408156
H            8.61265090572176        3.06459278523578       -1.66870872235896
H            4.88718682023759        4.58991721909402       -0.23309035459276
H            2.46180329763132        4.57334388148851        0.02683077756514
H            1.26403212925776        2.43280390122375        0.28418018806104
