23
 energy: -4.988203903952 gnorm: 0.000552366039 xtb: 6.5.0 (97a52f5)
O            1.00362104983658       -0.02992882117253       -0.06683441531325
C            2.21519042392733        0.00440726990507       -0.06651523322619
C            3.11542965311387       -1.16588767010726       -0.06639410887471
C            2.82471596069157       -2.51688607469461       -0.06599166982468
C            3.87040838103036       -3.41874726478750       -0.06529751556482
C            5.18617603793248       -2.97943192773958       -0.06493898796280
C            5.48235722411824       -1.63044611637627       -0.06528149691740
C            4.43830753935868       -0.71896186659163       -0.06602693943806
C            4.42630698238998        0.74513346313150       -0.06582203620266
C            5.46735797330713        1.65629576249582       -0.06526187689205
C            5.16788458483280        3.00879746253463       -0.06488897339985
C            3.86193378504219        3.44775620886595       -0.06502368460888
C            2.78178953147482        2.54942757477077       -0.06559065587580
O            1.47763268999379        2.97316358021639       -0.06562872925771
C            3.09665395966491        1.17892955092201       -0.06608508578367
H            1.79912422132038       -2.84202898847459       -0.06612706569673
H            3.66108498123431       -4.47566955939670       -0.06497277444918
H            5.98763983198173       -3.69944883045001       -0.06433466783207
H            6.50012789928907       -1.28273621631124       -0.06481630276251
H            6.48571418893596        1.31070413605283       -0.06509396647812
H            5.97040166462596        3.72778819561424       -0.06444738803292
H            3.65514973798942        4.50266257385361       -0.06467090622109
H            1.43343169790845        3.94884755773908       -0.06525551938485
