21
 energy: -4.686141861111 gnorm: 0.000886709486 xtb: 6.5.0 (97a52f5)
O            1.03599984491966        0.03754993497766       -0.07669183538436
C            2.24687971209181        0.04594209850208       -0.07628207299849
C            3.15197862400823       -1.12239724328831       -0.07597581006941
C            2.86698468375939       -2.47388413447244       -0.07553090937649
C            3.91711934705627       -3.37138208662946       -0.07473206825562
C            5.23059223676624       -2.92674135896386       -0.07432973772160
C            5.52197972354813       -1.57634261019560       -0.07474047109144
C            4.47492421953657       -0.66949611615701       -0.07557519476112
C            4.45776311694773        0.79734749772291       -0.07551516025570
C            5.46511520995629        1.74328013316188       -0.07488483516744
N            5.23485455962340        3.04849378529812       -0.07462385607540
C            3.95942370737728        3.42611063278583       -0.07492840038182
C            2.87736464564374        2.57473541712069       -0.07554646320602
C            3.13407423275479        1.22280212931825       -0.07590890228462
H            1.84273119826486       -2.80339738094811       -0.07572280030218
H            3.71228751332003       -4.42919417004476       -0.07438132030174
H            6.03496964119612       -3.64355028439184       -0.07362981622998
H            6.53842203592152       -1.22466942973552       -0.07426902621283
H            6.49254422968396        1.41907159775950       -0.07456178701288
H            3.78424855076944        4.49156743584162       -0.07464453969784
H            1.86364296685453        2.93548415233835       -0.07571499321304
