25
 energy: -5.512353354932 gnorm: 0.000838903768 xtb: 6.5.0 (97a52f5)
O            0.89839888525156        0.16410465455881        0.09287320115171
C            2.09914413622393        0.02937170346885        0.09294278459060
C            3.11234685367035        1.10113664733411        0.09333291978252
C            2.95891964202475        2.47600153433625        0.09340090700652
C            4.09038800792429        3.26542778939097        0.09344544423087
C            5.35915943736879        2.69702934844903        0.09335523247378
C            5.52340269363475        1.32859979164333        0.09320261860532
C            4.38995027319359        0.52840887689446        0.09316994795070
C            4.21194931012391       -0.91502084039169        0.09272510935121
N            4.94570388887887       -2.00909392369080        0.09256974875868
C            4.05334286738578       -3.04496214103558        0.09225549196166
C            4.29192613492571       -4.43062724725135        0.09209122391163
F            5.53989852543678       -4.92134132021790        0.09218856183295
C            3.20737551262710       -5.28369099104823        0.09193922958797
F            3.41070843781274       -6.61057980260711        0.09177159350335
C            1.89035843776215       -4.79192689366911        0.09198717097278
F            0.86660145246975       -5.65827694798132        0.09173904249819
C            1.63477370013575       -3.43532399969754        0.09222906329500
F            0.37027504840373       -2.98293574906518        0.09220960954185
C            2.72815551512364       -2.56403562264740        0.09240284147180
N            2.84445274975428       -1.17931893445755        0.09267018066557
H            1.96840295037324        2.90276098175131        0.09340196057559
H            3.98866598323372        4.34042560837304        0.09353306742427
H            6.22881837725680        3.33706928597693        0.09338664994639
H            6.50242117900387        0.87716819158386        0.09306639890960
