25
 energy: -3.620024574467 gnorm: 0.000790008088 xtb: 6.5.0 (97a52f5)
O            1.03650680396956        0.07026079963053       -1.08943136545677
C            2.14372813547587       -0.25982503492769       -0.81389705844577
C            3.26186757285620        0.55785589452812       -0.46359676511556
C            3.23881840938387        1.91402970087835       -0.44411881796249
C            4.31681007481079        2.59108833629414       -0.10176980360469
C            5.44328476285627        1.97709092674806        0.23243824643052
C            5.53527687858920        0.66344304460928        0.23704180760798
C            4.46303194657071       -0.10147264227655       -0.10624436730611
C            4.45606336044088       -1.51790911573846       -0.11610116512939
N            5.42618205462604       -2.26229623963915        0.23449312805469
C            5.14471848520899       -3.55494764005948        0.12530122889404
C            3.94420472030606       -4.23334702291837        0.14343315543090
C            3.81926483987321       -5.29545613747862       -0.67899389453944
C            2.84885171009618       -3.93739416985911        0.91570162970917
C            1.71338656457153       -4.61432661662159        0.63617088113221
C            2.82223198637366       -3.03815492654938        1.92795235907118
N            3.89109017883969       -2.65689389577038        2.58973331032497
H           -1.09368419343436        3.71010308642134       -0.42129320333976
H            1.99934034627670        6.59923057023984        0.36466025808877
H            8.09106447978800        6.50460887509078        0.37631438958685
H           10.08831110427024        2.64529785563149       -0.09268955920094
H            4.79188465815220       -6.38636804386016       -1.47135312219953
H            2.09483889020411       -5.70291844872163       -0.70158473792474
H            0.15543209248557       -4.75261367868616        1.19297664468422
H           -2.99668586292795       -0.82066547671989       -2.43592317968827
