130
 energy: -24.544993375726 gnorm: 0.000585186219 xtb: 6.5.0 (97a52f5)
C            0.84873780346702       -0.77960504690969        0.83387152186836
C            2.05043304919827       -0.13787522894847        0.11478041606586
C            1.58167191733449        1.18486431920799       -0.52280574047034
C            3.15832645548990        0.17898906745175        1.13592115007703
C            2.59643170248106       -1.11567771775079       -0.93717608325271
C            3.02551238347267       -2.37906113715410       -0.54873847586393
C            3.51749359020029       -3.28186064861424       -1.46406301626072
C            3.59787722481828       -2.95275835354617       -2.81329040995475
N            4.12964066782279       -3.87160175756294       -3.78433796551810
C            3.64116033479915       -5.21690050871411       -3.87442509804513
C            4.22340639913168       -6.10931110984510       -4.77232562719373
C            3.74113716290741       -7.39260295371172       -4.90455760682682
C            2.67559999263013       -7.81156345029957       -4.14167405564935
S            2.07970781621886       -9.49348919019194       -4.35006445637888
O            2.22008216972743       -9.89147126305265       -5.80785820366361
O            2.73836215238439      -10.34211551507707       -3.27770101432734
C            0.32481931980724       -9.35054435897008       -3.99621966682788
C           -0.26744536737011      -10.29608732116479       -3.19204383991329
C           -1.61781272381552      -10.21238399722647       -2.91042437266065
C           -2.36371227372710       -9.17995742007290       -3.42962443078983
S           -4.11422115703323       -9.11257341894164       -3.02900425710164
O           -4.65757045161984      -10.52813297568861       -2.95842256020259
O           -4.26764306872061       -8.19303068851015       -1.83130719801024
C           -4.83168838060171       -8.33025205273680       -4.47672739371916
C           -5.75848795756923       -7.32829999341145       -4.30272604699798
C           -6.32329086685541       -6.71122461280101       -5.39687803606151
C           -5.95085989126708       -7.07647083609056       -6.68912906208418
N           -6.54529901949673       -6.45345452786903       -7.83587907886138
C           -6.99818242397746       -5.08947066060625       -7.79736403709793
C           -7.99253284607130       -4.65900925570273       -8.66903449680998
C           -8.44124888546054       -3.35816946294002       -8.64171829785048
C           -7.91045391746857       -2.42985927230192       -7.75468711315834
C           -8.44993824888812       -0.99096215990941       -7.74273457934741
C           -8.20346916764785       -0.34329536196118       -9.11775195650270
C           -9.96101661047656       -1.01544691100765       -7.44416606891111
C           -7.75865168367677       -0.12984198083781       -6.66743895999945
C           -6.89251974448455       -2.85435049531470       -6.90830836189621
C           -6.44006433147832       -4.15457133260904       -6.93216213257404
C           -6.36574758892905       -7.05763225917440       -9.13745030485683
C           -5.33224038061288       -6.54330625588540       -9.92153858585252
C           -5.03406899442865       -7.07094553510323      -11.15319019481880
C           -5.76987519176056       -8.13193274862626      -11.62928380642455
C           -6.80433393027512       -8.64485671266049      -10.87330176172123
C           -7.14112046337119       -8.12917811340463       -9.62925713658804
C           -8.35226900442856       -8.75775171887983       -8.91026383081388
C           -9.58823495187955       -8.65647792476371       -9.82782256033050
C           -8.04551285165704      -10.23825810307869       -8.61413112068501
C           -8.71118553425651       -8.07546151144311       -7.57976188512754
C           -5.02281215485132       -8.10437966620391       -6.84375265971184
C           -4.47197787930173       -8.72757328334122       -5.74566065387016
C           -1.76908962036877       -8.22743975304664       -4.22809858589462
C           -0.42163435662179       -8.31909897493904       -4.52136731185571
C            2.09134896186478       -6.94918451223840       -3.23995681695195
C            2.56067249484229       -5.66006315034230       -3.11423041723284
C            4.86672068368775       -3.33777878805611       -4.90998004285394
C            4.16462291613696       -3.14666209289010       -6.10004100793612
C            4.77250538873752       -2.61644359968714       -7.21088943296095
C            6.10178683308067       -2.26352616612638       -7.15111724816295
C            6.81464723500309       -2.45442353290733       -5.98442409045868
C            6.23565519860372       -3.00438155223877       -4.84918740337006
C            7.07356144681319       -3.19600698773556       -3.57034766991848
C            8.58709576952734       -3.18117590075088       -3.87990663946225
C            6.77387569851893       -2.05134168384897       -2.58836304616768
C            6.76428584875431       -4.55124512999352       -2.90877922435337
C            3.18437778577138       -1.68377113371781       -3.20311976052630
C            2.69188189749795       -0.78576966288743       -2.28407666447196
H            0.42421826718704       -0.09640585656428        1.56855539888479
H            1.13836837954729       -1.68995965783499        1.35610258992626
H            0.06656511520129       -1.03682979746261        0.12056492481968
H            1.18360475138267        1.85883569122437        0.23498012643868
H            0.79365858829798        1.00927599574914       -1.25424512208045
H            2.40641431127751        1.69698522849408       -1.01691818343588
H            2.80817058255030        0.89104925173449        1.88234572106191
H            4.02716338798025        0.60948399976557        0.63936885118251
H            3.48268406213154       -0.71951132186168        1.65854496781123
H            2.97651980698576       -2.65555927542732        0.48991912368446
H            3.86110513082309       -4.24839136752017       -1.13986623057109
H            5.05335356234695       -5.77992202175126       -5.37193054573951
H            4.18717202948871       -8.07772427773916       -5.60624596680287
H            0.33107672581789      -11.09612110722367       -2.78889010383693
H           -2.09671623369433      -10.94896903465980       -2.28651845226921
H           -6.03707572215433       -7.03809493112614       -3.30340772870569
H           -7.07634143450675       -5.95519400151105       -5.26118468332454
H           -8.40813986327268       -5.36134497454004       -9.36969383736372
H           -9.21863738256552       -3.05394539334994       -9.32058138137917
H           -8.71634154017233       -0.88762328461163       -9.90911709246583
H           -7.13987442300287       -0.33332607803949       -9.35299627379935
H           -8.56251621203435        0.68511557328944       -9.13392361974077
H          -10.50781566240100       -1.56416440501444       -8.20924168109111
H          -10.36696141156488       -0.00524112287255       -7.40585754608082
H          -10.15584674421901       -1.49380829098084       -6.48502436553230
H           -6.68716701279118       -0.05866192770015       -6.85019003059233
H           -7.91471551880876       -0.54565586529748       -5.67270608266112
H           -8.15962611571976        0.88315968838983       -6.66752659125177
H           -6.44394155955545       -2.16084734421782       -6.21985787309165
H           -5.63021708073554       -4.45487168395276       -6.29126578568296
H           -4.75796618061585       -5.72118840486317       -9.53124698267468
H           -4.22795877635496       -6.66137169419048      -11.73978783709083
H           -5.54157748944086       -8.55765955333649      -12.59269788256151
H           -7.36891102326246       -9.47145637364753      -11.26780442337870
H           -9.44107304869246       -9.19545160058681      -10.76187980535091
H           -9.80093973257453       -7.61622637455558      -10.07100577423644
H          -10.46893903652906       -9.07510422772403       -9.34228177782885
H           -7.85194541822784      -10.79595096245303       -9.52882756929717
H           -8.88198463173661      -10.71489668372711       -8.10444538024799
H           -7.16698059453330      -10.32718168231726       -7.97615814276987
H           -8.86390862213213       -7.00658036402655       -7.71175090764939
H           -7.92706088893508       -8.22690838628908       -6.84266235178461
H           -9.62791552635952       -8.49295814370718       -7.16460021118538
H           -4.74044984839189       -8.40737800379224       -7.83612984184711
H           -3.75732470530593       -9.52391421665022       -5.86921752375660
H           -2.35852246278434       -7.41657133914422       -4.62150046715381
H            0.05210414056562       -7.58849313042955       -5.15565198710301
H            1.26199905183010       -7.28723017267690       -2.64212585084896
H            2.07328692118398       -4.97786344908814       -2.44194384467671
H            3.12407541790865       -3.41943812681364       -6.12982825682099
H            4.21268841159737       -2.47312010039365       -8.12065308166703
H            6.58522980783575       -1.83968563749091       -8.01616831751309
H            7.84949860315345       -2.16412242410137       -5.96739043994667
H            8.91570587421577       -2.20066409590715       -4.22097587025465
H            8.83610342620621       -3.91771351383128       -4.64294597737712
H            9.16516739669985       -3.41925524426342       -2.98762491969794
H            6.99746844931757       -1.08624561001245       -3.04123094984007
H            7.37161807243056       -2.14719218572765       -1.68274550793607
H            5.72712624277660       -2.04613318000741       -2.29685387346383
H            6.93693637102954       -5.36941169779635       -3.60655691150351
H            5.73208025272059       -4.60374172835648       -2.57473175748472
H            7.39695695850646       -4.71281260677954       -2.03677977065156
H            3.25469707116657       -1.41308144908572       -4.24139202839025
H            2.37979835258712        0.18601600176088       -2.62211982628255
