35
 energy: -7.677931409088 gnorm: 0.000732677091 xtb: 6.5.0 (97a52f5)
O            1.66039694163739        2.06331504752186        0.85453185509248
C            1.23301386811006        1.02870117361309        0.38849341717969
C           -0.18574415695583        0.67204179866322        0.24797732711098
C           -1.33070997668391        1.36912488922940        0.58708727419331
C           -2.55583772382773        0.78233082921787        0.34121292840607
C           -2.63680616427500       -0.47837006575326       -0.23380582078678
C           -1.49426370379183       -1.17472285746785       -0.57358971942533
C           -0.26640885963092       -0.58821687314915       -0.32775135344106
C            1.09873354382836       -1.07365194963986       -0.57525869942114
O            1.39153544202924       -2.14036235304815       -1.07201118050591
N            1.97129331960438       -0.06144996794121       -0.12072340963466
C            3.38901937460077       -0.13923955249558       -0.14604086118631
C            4.03431720089619       -1.24960842219363       -0.67502742614676
C            5.40754446842204       -1.33121018529814       -0.69299547482090
C            6.18075983721179       -0.30428754441407       -0.17313996778857
C            7.67188967244122       -0.36571129349127       -0.19904764226228
N            8.26799967669045        0.44793518995864        0.87360466784358
C            8.57088841278535        0.00345712349008        2.15216368538083
N            8.93035629863732        1.03949654057409        2.85718070956331
C            8.83112186749236        2.08889540832896        2.01169953479946
N            8.41688922963401        1.76193218676850        0.80677773253401
C            5.53965293432661        0.80685836768625        0.34786795703358
C            4.16848366643521        0.89032006856516        0.36328615585341
H           -1.24984334312440        2.34566807796975        1.03206698967030
H           -3.45948767232025        1.30970795124305        0.59910869379024
H           -3.60278783253559       -0.91940287865130       -0.41705658772743
H           -1.53987764947251       -2.15319090631278       -1.01940395214963
H            3.43495519121343       -2.04832910639009       -1.07377199179793
H            5.89290528182976       -2.19580444717012       -1.11215562853856
H            8.04445274520171        0.00650785336176       -1.15561338681706
H            8.01792930801055       -1.39595203138217       -0.09166872746735
H            8.50520359320033       -1.01298776979840        2.51266816378952
H            9.05383600578540        3.10841572055349        2.30620772670603
H            6.13753889135227        1.60530222627038        0.74846338258514
H            3.67642031124210        1.75473775158293        0.77165362838850
