41
 energy: -8.483850354765 gnorm: 0.000538853386 xtb: 6.5.0 (97a52f5)
O            0.00842271444964       -2.62777712207754        0.10333528991376
C            0.00734801141883       -1.41611403182909        0.00810968761744
C            1.26796641198380       -0.66155793220601       -0.01678667965623
C            2.47998510790502       -1.32988822036186        0.07176794674525
C            3.66822572074976       -0.63726235909608        0.04895864699582
C            3.66145030327077        0.73970763783430       -0.06417024382332
C            2.46644318056146        1.41567851312276       -0.15267372803439
C            1.25921616212064        0.73317367754176       -0.13055665840162
C           -0.00809829205022        1.48300824639898       -0.22551082130127
O            0.02971092281921        2.69493334202231       -0.32173525088144
C           -1.27418138473245        0.73484090431960       -0.19846158307498
C           -2.52130811034787        1.40011415784883       -0.27606516714266
N           -2.58440709058579        2.77873662859368       -0.37710017550556
C           -3.78761656666107        3.60038030701634       -0.32172972152081
C           -3.47963717110258        5.08379456145200       -0.22811772470276
N           -4.67177982283062        5.91218105668164       -0.21369623390467
C           -4.64861252411877        7.23645415217525       -0.66134442360595
N           -3.57907970676796        7.64149474678082       -1.33310391835349
C           -3.61706298688471        8.90060884010727       -1.71935732395300
Cl          -2.24186015301211        9.50335644251365       -2.62343484988470
N           -4.60331364051456        9.74791160806881       -1.48552891580799
C           -5.61370038851066        9.23647524134950       -0.80495380681090
Cl          -6.95848670428327       10.30285334455546       -0.44865519052702
N           -5.69628540221473        7.99578359227396       -0.36932639833306
C           -3.69790836759677        0.64502730359456       -0.24460888508037
C           -3.66015060728570       -0.72150961899875       -0.13524869593664
C           -2.44728986376480       -1.37202920770163       -0.05486287376690
C           -1.25726288696534       -0.66575547197555       -0.08485115862927
H            2.46926998193755       -2.40346016031613        0.15922748249552
H            4.60382600868695       -1.16784462133324        0.11896722208611
H            4.59177593207854        1.28367668423696       -0.08289955225029
H            2.44616654875979        2.48910488234864       -0.24121340424119
H           -1.71807305740317        3.31673817046562       -0.38463325943843
H           -4.38420345201405        3.28661066212863        0.54042019099175
H           -4.38904049724630        3.39766891113619       -1.21377749892440
H           -2.87257923456568        5.39464098531598       -1.08451316796068
H           -2.88465107828418        5.30218537602149        0.66566111217149
H           -5.38354780449442        5.62850637745298        0.45309761528742
H           -4.64618691037823        1.14715052586010       -0.31460368929678
H           -4.57731083106984       -1.28751828346525       -0.11250207721573
H           -2.40461247105892       -2.44477984985461        0.03294788365885
