56
 energy: -12.271793274509 gnorm: 0.000636640161 xtb: 6.5.0 (97a52f5)
O           -0.07389904851940       -2.62940105069410        0.41624735300181
C           -0.03309342154370       -1.42926713786909        0.21125592883188
C            1.25403260744923       -0.71255070762550        0.15810780101637
C            2.44063898890685       -1.40990136471249        0.33607116807786
C            3.65396246540813       -0.76246289085486        0.29006767484982
C            3.70073189342182        0.60031949307119        0.06437284014448
C            2.53395689289504        1.30746609770044       -0.11423195724409
C            1.30171046552194        0.67055989170408       -0.07100839411245
C            0.06591523679490        1.44935663162250       -0.26509942630354
O            0.10296308944367        2.65098158640962       -0.45761130920639
C           -1.21942093633755        0.73017979380537       -0.22068174141841
C           -2.40018763435085        1.42742160860414       -0.40635179057517
C           -3.63897284448717        0.79497483400038       -0.37686997881490
C           -4.88459741563353        1.55863106514283       -0.58615468843659
C           -4.90846556492258        2.68318927054300       -1.41376816257261
C           -6.06721639186900        3.39165191454136       -1.61276941119611
C           -7.25810352466055        3.00722089293239       -0.99800434686382
N           -8.46678131711867        3.73674316486279       -1.21769714478998
C           -8.67489691251647        4.44717781828110       -2.44876444371143
C           -9.28684323766799        5.69838111069750       -2.44895499338132
C           -9.49234661663485        6.37995261563313       -3.62671148952469
C           -9.09370916833988        5.82450844330955       -4.82652501565760
C           -8.48959113192560        4.58283653442857       -4.84402697606041
C           -8.28253375416911        3.89911143540467       -3.66769641634557
C           -9.49870141283162        3.75834078247788       -0.21897697098956
C          -10.83985347727458        3.68171883567872       -0.58679614558041
C          -11.83244728114876        3.70343440161618        0.36613921558355
C          -11.50539371112096        3.80427314265261        1.70400178036354
C          -10.18049404050421        3.88525592997830        2.08513013160018
C           -9.18578466255306        3.86435980748327        1.13409552375808
C           -7.23663869276060        1.88588010109920       -0.16969287019226
C           -6.07716370786703        1.17953444643319        0.03359038581410
C           -3.66391670400721       -0.58385074877355       -0.14896422695437
C           -2.50036711910173       -1.28788383992213        0.04071668515217
C           -1.26621137254383       -0.65276161464185        0.00853454836743
H            2.39277363357792       -2.47108170778658        0.51145181626149
H            4.56717928173078       -1.31727297850953        0.42961321706255
H            4.65029222922194        1.10847722359479        0.02783646755518
H            2.55877209575040        2.36914622170024       -0.29105192889523
H           -2.34467781818084        2.48926441249989       -0.56239707789058
H           -4.00667463427725        2.98426572381630       -1.91770620711441
H           -6.06658322964032        4.26282384020678       -2.24434588995506
H           -9.58841684298662        6.12888274094561       -1.51017951318476
H           -9.96408228663532        7.34877338355651       -3.61263153223726
H           -9.25495892763781        6.35889905006212       -5.74823194746813
H           -8.18062552540494        4.14820245933926       -5.78047540787294
H           -7.82328126285432        2.92632463178072       -3.67706335743802
H          -11.08758490162853        3.59456280485161       -1.63015787306331
H          -12.86615601383475        3.64026607670422        0.06814132203299
H          -12.28320032836292        3.82064217336371        2.44959691144927
H           -9.92528838533153        3.96604466007015        3.12896617650282
H           -8.15277369532020        3.94042649237289        1.42471400189530
H           -8.15090461413631        1.57103676230861        0.30195831007578
H           -6.07950027916873        0.32945744434955        0.69320529301541
H           -4.60794013322934       -1.09961252970455       -0.14165719035677
H           -2.52627889908356       -2.34985118054667        0.21467127299333
