50
 energy: -10.937192085420 gnorm: 0.000554045435 xtb: 6.5.0 (97a52f5)
O            2.24341241162728       -1.80013210264022        0.30801832156795
C            3.07035371708147       -0.97293451826905       -0.03170609781290
C            2.65963253152902        0.31603679054054       -0.63159821583975
C            1.79881861209520        1.15180156745269        0.06823472495514
C            1.38631257208126        2.34923000921308       -0.46644356973365
C            1.82394772776130        2.72972621359847       -1.72225539796327
C            2.65768034563659        1.90775546779611       -2.43764673866188
C            3.09314926188094        0.67896120843276       -1.92159548977352
C            3.92753524504583       -0.20481587548628       -2.73294336829936
C            3.79018869133312       -0.30911113413269       -4.10547665395554
C            2.57650835868907        0.00855633332980       -4.86998792712650
C            1.32264039106887       -0.11383084359192       -4.27644682472890
C            0.19599313083097        0.16281857082711       -5.00110947298087
C            0.35417485445200        0.54583187783944       -6.31107424823330
C            1.62504708737201        0.62152341256230       -6.82756078434098
N            2.73086210965864        0.35808310941840       -6.15320224723101
N            4.92599892512390       -0.69557545173305       -4.82207730763634
N            6.19649347620286       -0.48925374009800       -4.40858781757506
C            6.30783628981801       -0.32902134231442       -3.11534213021288
C            7.37773974152104        0.51844523873109       -2.58696100710030
C            7.13899224222816        1.33012424339772       -1.47469282632160
C            8.13201052451921        2.13389764812724       -0.98959789910200
C            9.34408545695379        2.11799943359756       -1.63676495454538
C            9.49484347835552        1.30877833801443       -2.73796500139618
N            8.55591960385313        0.52355337833781       -3.23174910361991
C            5.18947328809622       -0.90124227286932       -2.25817458279013
C            5.49896685039960       -1.09696052778893       -0.77453442492189
C            6.80288133672663       -1.41216864095328       -0.41665040335627
C            7.15418516300937       -1.73355652229312        0.87678736217543
C            6.18762157097363       -1.78534641596868        1.85400067507671
C            4.87980476858764       -1.52586745469220        1.52197752133754
C            4.51649955408514       -1.19012722684947        0.22269033309823
H            1.45761810772346        0.84352197178441        1.04162469553131
H            0.72251062433138        2.98966066341084        0.09070696165754
H            1.50214209581253        3.66848286864207       -2.14217148227264
H            2.98808972154321        2.20136620063679       -3.41879633150260
H            1.24779285294016       -0.43075314974771       -3.25096084000292
H           -0.78389671733241        0.08203822279686       -4.55943820994676
H           -0.50241749697946        0.77834666160523       -6.92198850387947
H            1.75610821367536        0.91463757901998       -7.85840950211285
H            4.81832058156684       -0.69619608582703       -5.83850526116706
H            6.16627415799305        1.32651170424495       -1.01475013258342
H            7.96915562716911        2.76143824951511       -0.12869325878901
H           10.15853926530205        2.73290765489526       -1.29065007191435
H           10.44251179991104        1.29791748468419       -3.25486539971869
H            5.07394629412067       -1.93860339094052       -2.62021844047203
H            7.56365745159988       -1.41454282446704       -1.17731651999094
H            8.18080026519602       -1.95400012535522        1.11944859576600
H            6.45137646202653       -2.04113339517739        2.86714959460680
H            4.10809137478354       -1.59110906125812        2.27010966386349
