32
 energy: -6.794889504515 gnorm: 0.000881712261 xtb: 6.5.0 (97a52f5)
O            1.07921315477285       -0.38274521845336       -0.12895054204284
C            2.28668797169786       -0.28890392411395       -0.09793750113351
C            3.28198598833243       -1.37171849710690       -0.07574404617944
C            3.12560859175162       -2.74585261683138       -0.09496161914986
C            4.25507601461006       -3.53697031262980       -0.07461528255521
C            5.52199655612892       -2.96809822498459       -0.03775608289645
C            5.68407249062779       -1.59872055391919       -0.02091350267835
C            4.55267230982668       -0.79422585309998       -0.04039711410974
C            4.38283043711596        0.65581941102847       -0.04113766987735
C            5.31929703956255        1.64515331689638       -0.01828507921699
C            4.95016528621251        3.01972375801371       -0.02932140211470
C            5.92635830145241        4.03047076514504       -0.00306768610476
C            5.54514071123756        5.35287159866087       -0.01476972981457
C            4.15461452527333        5.70840378527448       -0.05360730641681
C            3.19403890030286        4.72267871171127       -0.07971423251340
C            3.59014874628195        3.39579462822549       -0.06771426817480
B            2.54440261356387        2.27975428869825       -0.09558881057832
O            1.15950735089246        2.49766730358092       -0.13603608518448
N            3.02196219667317        0.91250838522045       -0.07761093488095
O            4.03299645721386        7.08318673526327       -0.05791019993348
C            5.36862728718119        7.57089650871356       -0.01950998295606
O            6.30821592380840        6.50300049460960        0.00570543533155
H            2.13737143451684       -3.17085905344034       -0.12579616714024
H            4.15344082506773       -4.60981125668941       -0.08880671407921
H            6.39061724228602       -3.60580183819244       -0.02284538278109
H            6.66268134404362       -1.15282914193123        0.00521103911415
H            6.36087255615402        1.38404133844748        0.00829053626004
H            6.97054599273074        3.78184003076731        0.02634898069284
H            2.15139100703227        4.97909726130371       -0.10963413404763
H            0.86144071362904        1.56354876746649       -0.14237793251803
H            5.49952981776088        8.18318067640255        0.88387075087079
H            5.55048021225850        8.18600872596354       -0.91206733319111
