35
 energy: -7.525855471245 gnorm: 0.000895303160 xtb: 6.5.0 (97a52f5)
O            4.22039004761261        0.63977214662643       -2.74042198649841
C            4.47281107852740        0.93014408927543       -1.59135828654794
C            3.55978027775542        1.57316321939347       -0.62535179530779
C            2.25481618602820        2.00649598531440       -0.76364432048408
C            1.63651224944455        2.59296375196565        0.32243870446872
C            2.30916803855127        2.74667476043479        1.52759385160926
C            3.61343168180870        2.31892948340277        1.67243514014276
C            4.24373525046621        1.72780414446793        0.58684694383965
C            5.59262892069986        1.19113479766225        0.40807353183683
C            6.63865896407916        1.12504857471452        1.29620197904915
C            7.86967582931520        0.57469441462046        0.90749087233631
C            8.94890735673690        0.51638358427347        1.82172946412273
C           10.13987451182700       -0.00960885647655        1.45339005460408
C           10.32703474810475       -0.51379325163192        0.14294343040406
C           11.54818234709304       -1.06717926953299       -0.27905250008035
C           11.69319561577058       -1.54524379629727       -1.55108610544821
C           10.62740396852226       -1.48946759099252       -2.44822109939606
C            9.43140510300199       -0.95585592471673       -2.06374146659136
C            9.24654922524286       -0.45469211850268       -0.76606176643020
N            8.04788533192551        0.09136372304751       -0.35670791216095
B            6.93711839636964        0.12366359974895       -1.42850638578462
F            7.38243034009184        0.89241404951036       -2.48928048183040
F            6.66542770490459       -1.17693416006656       -1.81437854478989
N            5.66151485209507        0.74733333585267       -0.87275391900897
H            1.74631568576029        1.88112780430313       -1.70381996826576
H            0.61855791445441        2.93609979081410        0.23322367587420
H            1.80644802292322        3.20851225349611        2.36144235815664
H            4.13991023193919        2.43896980924915        2.60270892676481
H            6.51283916094856        1.50074386929228        2.29461203466785
H            8.80948425451205        0.89856963186689        2.81840512336213
H           10.95764683185603       -0.05123024522318        2.15173881474335
H           12.37071715831549       -1.10967590911004        0.41390645061268
H           12.63403143405101       -1.96749460612123       -1.86408587735739
H           10.75083332465641       -1.87002857826873       -3.44900725988863
H            8.60609795460233       -0.91057251239006       -2.75213168072489
