29
 energy: -6.124673424731 gnorm: 0.000851997831 xtb: 6.5.0 (97a52f5)
O            4.25702639209305       -0.16421100945906       -1.66968580832340
C            4.12538690216230       -0.01477976738473       -0.47436273091496
C            3.88263725092005       -1.07270486032720        0.52524841716112
C            3.74138864091533       -2.43941272450046        0.37757105279731
C            3.51459865100046       -3.20345890119257        1.50452334293670
C            3.43016714415053       -2.61437678190781        2.75927040614227
C            3.56947796588177       -1.25022756281446        2.91450848271222
C            3.79763081608862       -0.47267153954300        1.78817253621078
C            3.97947026831621        0.96769984821772        1.60975877665624
C            3.96390589736364        1.97445423895709        2.54221583030036
C            4.14607233633013        3.31235649966514        2.14130943606198
C            4.12893131411576        4.36878000024351        3.05939785585611
C            4.30514265118193        5.65597913039481        2.62639156545998
C            4.50050904379345        5.91294847806818        1.27891884488198
C            4.51507442985394        4.86879533504730        0.39026876152148
N            4.34230039406036        3.60868809869605        0.81606021406682
B            4.38812511898017        2.55814877597627       -0.30440413161722
F            3.38173137855227        2.84889168324765       -1.20768459930818
F            5.63670790156477        2.61575617681982       -0.89687887722771
N            4.16499032235038        1.16632728480231        0.27515267345255
H            3.80898044654115       -2.88139708274201       -0.60150302988624
H            3.40165243202686       -4.27114142070258        1.40887200660716
H            3.25245235409215       -3.23140119795289        3.62489562008267
H            3.50351324498040       -0.78954516166153        3.88439822134502
H            3.80708265214819        1.74274421464317        3.57914298567396
H            3.97519016241588        4.15997394658591        4.10420779233009
H            4.29145740592661        6.47033517189575        3.33254194947064
H            4.63941184022371        6.92402640232080        0.93231996051303
H            4.66388464196995        5.02739272460677       -0.66509755496272
