34
 energy: -7.374838280216 gnorm: 0.000745781046 xtb: 6.5.0 (97a52f5)
O            4.04965524225837        0.55374764557257       -2.55158838123959
C            4.37527380317303        1.01500497540086       -1.47964986425592
C            3.54067159427726        1.82684208368040       -0.57837568744908
C            2.23671801655537        2.27131850448740       -0.69231951125601
C            1.71070696209195        3.03664713184018        0.32886776717385
C            2.47218788182950        3.35563314814664        1.44698643506481
C            3.77391149635781        2.91601419396287        1.56758810641479
C            4.31024871042841        2.14528714707065        0.54650306450830
C            5.63111204374039        1.54878253663679        0.37694671737311
N            6.63356113479474        1.63671735913149        1.23833752322889
C            7.77296346691724        1.00308496649010        0.87042478841025
C            8.86449020702411        1.05866280169505        1.76779688830564
C           10.04712647836615        0.46695399852244        1.47599875498218
C           10.21529458077854       -0.22715659792606        0.25649932828486
C           11.42583391078912       -0.85142669826498       -0.09490640841102
C           11.54814819850073       -1.50857239090831       -1.28594417914232
C           10.47017194438730       -1.56967960887250       -2.16882711554381
C            9.28490516471591       -0.97337258171029       -1.85065748151572
C            9.12342413363291       -0.28838601518375       -0.63647143982775
N            7.93570787516354        0.32784484782318       -0.29746558601778
B            6.82010879265683        0.19323270081812       -1.33435179503282
F            7.23178542812241        0.78253274050171       -2.51396861725652
F            6.52711380810231       -1.14538935780792       -1.50611835765822
N            5.60312617930654        0.91442987402945       -0.81012709190346
H            1.65946797111091        2.01805449703968       -1.56475618440037
H            0.69596734410059        3.39291347287244        0.25722766565786
H            2.03964243574957        3.95569748818534        2.23084841640051
H            4.37368514032546        3.15796598716308        2.42744794828203
H            8.73181948105099        1.58911309790156        2.69488568859961
H           10.86996988493723        0.51899169739008        2.16792444988680
H           12.25755169518645       -0.80318007707566        0.58681398961873
H           12.48037947655390       -1.98230354859488       -1.54715623567336
H           10.57655050736182       -2.09047467815645       -3.10663057159182
H            8.45075900965192       -1.01792134186074       -2.52880302401819
