31
 energy: -7.118533168030 gnorm: 0.000816394336 xtb: 6.5.0 (97a52f5)
O            5.88506581863139       -0.97712716284270        0.16248418194229
C            5.28388921842192        0.07881754969529        0.13718880482156
C            4.55368729977673        0.70944342828979        1.24226996876209
C            4.36348169604361        0.30198817643634        2.55227914710095
C            3.62334163542962        1.10700322703644        3.39178873718192
C            3.07811692012838        2.30424989560535        2.93696403855741
C            3.26329261101347        2.71698937591086        1.63612699453480
C            4.00856257221124        1.91219167231058        0.78240232133013
C            4.37532198177539        2.07614729163721       -0.61129044545264
N            4.05409903552652        3.07397322073606       -1.39153425088576
C            4.53319271008902        2.98221348657686       -2.67808558972268
C            4.25032783211380        3.99703282796546       -3.58414409932063
C            4.71238217376098        3.95227433038707       -4.89296804999578
C            5.46728730691187        2.89978080799795       -5.33680475792288
C            5.78998987940468        1.83772395478847       -4.46980487188259
C            6.56492154119716        0.72928255724555       -4.87360394917674
C            6.85592071587835       -0.28045898218436       -3.99416969013866
C            6.39318250001008       -0.23204070627075       -2.68553298885134
C            5.63297685433769        0.83557491579379       -2.25381436729281
C            5.31846352658334        1.88594653415702       -3.13730269757473
N            5.13690015224691        0.95997348226496       -0.95770972147785
H            4.79108955731481       -0.62544378131374        2.89058411109753
H            3.46523380229107        0.80560914816187        4.41409923374429
H            2.50425528111388        2.91703398370224        3.61243520548937
H            2.84760199279656        3.64047840477021        1.27404243223303
H            3.65855226161837        4.83007482023287       -3.24814486351656
H            4.47304833079416        4.75807073653645       -5.56713698206908
H            5.82265535864076        2.87369567688365       -6.35209879829212
H            6.92618577201481        0.68718059928004       -5.88626198958299
H            7.44853067683594       -1.11997348139098       -4.31813641246482
H            6.61674298508731       -1.01890599040001       -1.98737065117500
