28
 energy: -5.971137721776 gnorm: 0.000696671772 xtb: 6.5.0 (97a52f5)
O            4.28601351211356        1.20016139209454       -1.17888042542903
C            4.13649749154847        0.33379763776102       -0.34523176235748
C            3.86707257201696       -1.09203461139870       -0.58738565050290
C            3.71056034796569       -1.80513539825667       -1.76135229617692
C            3.45840706485648       -3.15955533127762       -1.67902540137329
C            3.36346385928128       -3.79472938910396       -0.44611561063302
C            3.51810876487810       -3.08982712346557        0.72901176788564
C            3.77193041167649       -1.72769748903250        0.65653185073850
C            3.97120034907186       -0.72428431350894        1.69639497226649
N            3.93134326651550       -0.95031019319432        3.00012944667607
C            4.12459635792543        0.14516895242082        3.78139175355893
C            4.08891223895647       -0.00745838212006        5.16998071048066
C            4.27589817613979        1.07033297110069        5.99606533237857
C            4.50223702233474        2.32204735240945        5.45386657727035
C            4.53498061202153        2.46193766768156        4.09068650371199
N            4.35089017098919        1.40080451912428        3.28991826357584
B            4.41856179099065        1.72816370701061        1.80400120404574
F            3.43158103967235        2.64657276034965        1.50718266009416
F            5.67582538356933        2.21941454322568        1.51489399320959
N            4.17695298016036        0.44301554330227        1.05044157944595
H            3.78628389812509       -1.29933304153946       -2.70875185387140
H            3.33312897645512       -3.73244535321239       -2.58374230904004
H            3.16527205489194       -4.85365539376058       -0.40765849288671
H            3.44538890479810       -3.57087145331494        1.68890808270038
H            3.91068397220044       -0.98819451881848        5.57646054872680
H            4.24642230367864        0.94346188767757        7.06641756503715
H            4.65060806158988        3.17632756776397        6.09451986534417
H            4.70786841557655        3.41914549008208        3.62577112512379
