45
 energy: -9.981056895336 gnorm: 0.000735658158 xtb: 6.5.0 (97a52f5)
O            1.06866270683087       -0.68738597326032        0.35025432701590
C            2.24512900071775       -0.41885801049240        0.20874262362736
C            2.68956869721134        0.99413856168927        0.21093551685413
C            1.74144389877669        1.98841671651797        0.00297834008120
C            2.10118064145698        3.31754185370562       -0.01827819921371
C            3.41908469084173        3.67667731822354        0.17044646564469
C            4.36976804095591        2.69870244002633        0.38545440309135
C            4.01035640196838        1.37380206994503        0.40816661122504
S            5.30953363518908        0.18312731009957        0.71613080972337
O            6.47928646868335        0.51240085187835       -0.18631537169319
O            5.51704941359434        0.09145628514299        2.21227009418810
C            4.59098024560151       -1.35675085760673        0.15869646245073
C            5.44815462046967       -2.40358035136003       -0.08217570893270
C            4.96057271820465       -3.62499820486195       -0.49389512500713
C            3.59413048320474       -3.80936951756060       -0.66300056503975
N            3.06718044438894       -5.07797555191064       -1.08121218033117
C            3.34985184124690       -6.32721674503864       -0.49431672460242
C            4.14700146305998       -6.66384387235600        0.59858828538266
C            4.23280400986862       -7.98213186369432        0.97108130879568
C            3.53512366461021       -8.97386296408246        0.27760777799533
C            2.73815103514662       -8.65811789527885       -0.79542095395887
C            2.63971438543394       -7.32239297040104       -1.18572109357260
C            1.89524574092598       -6.66767664141476       -2.23503484028918
C            1.04334007854514       -7.15286538987785       -3.22739378160039
C            0.48768960575188       -6.26132194691247       -4.11203341241109
C            0.76836775567057       -4.89559981672972       -4.02834122941210
C            1.60478626405465       -4.40310253531213       -3.05794664586336
C            2.17108705543521       -5.29329086772528       -2.14681840335582
C            2.74132624257732       -2.74368627378850       -0.41961698904251
C            3.22190513509444       -1.50884373934170       -0.01585888470584
H            0.71514638582235        1.69640011733858       -0.14153828502332
H            1.35365512214637        4.07610984525405       -0.18259707170216
H            3.70567556882999        4.71527808283094        0.15358488971299
H            5.40335307434072        2.96472186301117        0.53842563257241
H            6.50726115101163       -2.25625986794321        0.05469963182654
H            5.62878225669585       -4.44311456266875       -0.69721516552195
H            4.67142046952081       -5.89458521378871        1.13577300895414
H            4.84629950829982       -8.25731634597605        1.81313292203797
H            3.62105072678663      -10.00066460976111        0.59270549350834
H            2.19325601518541       -9.41578154098930       -1.32992313918514
H            0.83614556744144       -8.20641644310913       -3.28956568217465
H           -0.17207393417390       -6.62028438277114       -4.88452931212248
H            0.32288643871533       -4.21930422784354       -4.73913463482937
H            1.83445521060691       -3.35487257270441       -2.99587001993252
H            1.68076005325173       -2.87708155909870       -0.53003118516299
