23
 energy: -4.692782767940 gnorm: 0.000457065892 xtb: 6.5.0 (97a52f5)
O            1.04950784759725        0.07203694534660        0.04022069787894
C            2.26811284231855        0.07766290588794        0.04913220730161
C            3.03593743115550       -1.14935630731804        0.05454471782718
C            2.60648944190133       -2.46570220693135        0.04797814355207
C            3.75274756603073       -3.29239301100573        0.05625678086169
C            4.87310507031819       -2.48537252745507        0.06792913484308
N            4.42038314935682       -1.20086904418143        0.06664565452168
B            5.28225440318391        0.05916421303837        0.07725821174049
F            6.04649361831315        0.06651519401532        1.23158157123616
F            6.07774421923529        0.06498489366486       -1.05571538541570
N            4.39711621426111        1.31357100615126        0.06491336255189
C            5.11095106494655        2.45300552353851        0.06863262876917
C            4.48128834096486        3.67028363729491        0.06171530288099
C            3.10016492194693        3.71650623362909        0.05097700049693
C            2.37939616237884        2.54564682936395        0.04730221190179
C            3.03392054344192        1.32808859840196        0.05420425452880
H            1.57711711993913       -2.78561521839592        0.03769172936341
H            3.75170803190703       -4.37134679495830        0.05340780350635
H            5.91084922217499       -2.78000529919784        0.07617343509554
H            6.18604365194553        2.37301144702071        0.07735017245758
H            5.05676979585766        4.58190208645772        0.06466406549355
H            2.59032949290885        4.66650016826463        0.04552448496416
H            1.30198984791585        2.55604072736782        0.03887181364266
