44
 energy: -7.501217476661 gnorm: 0.000423907311 xtb: 6.5.0 (97a52f5)
O            2.99174977217243        0.09222793642368       -1.69254599786264
C            3.31600169399876       -0.30818954989708       -0.61437443884531
C            3.78775383003725       -1.71231076841092       -0.34648023770976
N            4.15425385338114       -1.93150373210177        1.02424239956877
N            4.37182704284146       -3.11037330747603        1.35086956595460
C            4.54711731298749       -4.07701717257794        0.30393929270498
C            4.94368916543460       -5.43276024108050        0.81928441593654
O            5.20145787339696       -6.36537562375772        0.11796799369220
C            3.24127182477182       -4.13732169947028       -0.60254109554336
C            1.99770197614209       -5.11811081794626       -0.83815242705583
C            1.75553711181219       -5.03639770509030       -2.39180173996291
C            1.34546461258287       -3.53666087193554       -2.61094313822973
C            1.17653657953417       -2.95260003517550       -1.16778566959041
C            0.75684969026112       -4.26085608637372       -0.36022484236299
C            2.58833297281395       -2.75202269766746       -0.45676454845813
C            5.61075244487357       -3.47836594935709       -0.69253330124844
C            7.07446113324888       -3.13003094178484       -0.22847417765586
C            7.05587744198716       -2.16561441456691        1.00027799290599
C            6.56391868838204       -0.80619278539272        0.41057712685782
C            6.28739636828599       -1.12760475632403       -1.09551055782268
C            7.47217600178701       -2.12958976199262       -1.38557055321120
C            5.03853404903365       -2.08931495123428       -1.22098230946862
H            3.24070522191548        0.37403800003317        0.22030423631237
H            4.99322714424768       -5.57725219572871        1.88941725981288
H            3.68831219871752       -4.14241337694034       -1.60955322055007
H            2.09802865609556       -6.12246775821114       -0.40167213658869
H            0.95340944808698       -5.71935852835462       -2.68983353109932
H            2.64517848561627       -5.31951927325700       -2.96373432195689
H            0.41997790640124       -3.44766763772898       -3.18902278973593
H            2.11929335717607       -2.98128460179298       -3.14973715296994
H            0.48889472072200       -2.09857234519747       -1.08123282719213
H           -0.19583556771852       -4.67467752951281       -0.70214269170193
H            0.72489906069764       -4.12168378296137        0.72407850440650
H            2.26075202368274       -2.70910549081039        0.60212339990167
H            5.70555756975184       -4.18591710183980       -1.52868277081733
H            7.73954621387456       -4.00062608920182       -0.12287840392290
H            8.05130947483583       -2.07827660542916        1.44893326306935
H            6.38338614370497       -2.54040377410619        1.77677967483547
H            7.32659462540572       -0.02583353975343        0.50670940300225
H            5.66547265513746       -0.43707837647474        0.91259809548865
H            6.25502393306942       -0.24873582589834       -1.75701448111088
H            8.45743100362339       -1.67805190530461       -1.23661590857645
H            7.41452538577726       -2.58079852694878       -2.38053405825738
H            4.72601889941207       -2.15909780139077       -2.27042329494192
