26
 energy: -5.109705073458 gnorm: 0.000665663514 xtb: 6.5.0 (97a52f5)
O            1.25806296257541       -0.41262737948686       -0.20296900487501
C            2.28451597461777       -0.14891362254158       -0.77133624958231
C            3.10376913823739        1.03125818313026       -0.56617916363665
C            4.25768415985008        1.45929114829269       -1.15121978009117
C            5.08215217326623        0.89000843127586       -2.18864868434883
C            6.21795211171932        1.44750320975931       -2.71247505822840
C            6.82242095607156        0.66585637010445       -3.71776765882024
C            6.16484223361565       -0.50616067254330       -3.98596795064807
C            6.56353954026143       -1.48798992007081       -4.96054289935579
C            5.91940915709546       -2.66507999938976       -5.21622266750992
C            6.53309008087102       -3.44495275430597       -6.23197003467708
C            7.64038332320274       -2.87191768966115       -6.75478761759622
S            7.95790399901463       -1.34979110536618       -6.00433045703027
S            4.76061714762954       -0.63634189880282       -2.96390914142529
C            4.31186453468642        2.71991983368402       -0.32474306616466
C            3.00073743658294        2.23292781192381        0.33232104502384
H            2.62289079181318       -0.86077733441947       -1.50932626649002
H            6.60837682082987        2.39735739755086       -2.38194754406979
H            7.72348959935145        0.95681232808074       -4.23463857187918
H            5.02771638720237       -2.96748007263499       -4.69016257845291
H            6.14944644025627       -4.40246585870853       -6.55322070870938
H            8.25143613846674       -3.29130459625771       -7.53171790784233
H            4.21737300492439        3.63542913174810       -0.92755636789481
H            5.18191924433769        2.75778255147215        0.34763352224056
H            2.11528997900310        2.85093326177007        0.12125036396293
H            3.07917666446376        1.97835324538598        1.39990444809615
