62
 energy: -13.228216629490 gnorm: 0.000498345416 xtb: 6.5.0 (97a52f5)
O            1.69932686464187        0.79329014390640        0.40346618913165
C            2.82177919550758        0.36928912036192        0.50132471006866
C            3.23027762220769       -1.00832022049138        0.29317475229676
C            4.50835752362363       -1.37036402416533        0.51373092872755
C            5.03837143167993       -2.69936361578575        0.30833075358284
C            6.17240151259150       -3.25969190397055        0.92847453179865
C            6.96424018824075       -2.68386454537392        2.01751631368137
C            8.29284633954643       -3.07011750066481        2.16762372253429
C            9.06338894490710       -2.56771248863736        3.18844217252267
C            8.53120176633012       -1.66468132401017        4.10814703732704
C            9.35935553136132       -1.12521095348917        5.20999308387770
C           10.68006045166196       -0.73798784500104        4.98838363473613
C           11.45069021411307       -0.23860463720734        6.01508139091139
C           10.91962606277239       -0.11606301004141        7.28283378925701
C            9.61419686268387       -0.49428015416206        7.52174312104355
C            8.84058070001502       -0.99343758300113        6.49716790785398
C            7.19488201650709       -1.29152880460904        3.96652226819035
C            6.42544697851813       -1.79291134321386        2.94437141899800
O            6.46154082449558       -4.47077110065466        0.36321532030339
C            5.53685682963228       -4.69482235224621       -0.61929081834996
C            5.53770053325484       -5.89706050430973       -1.46671445596951
C            5.73621261017983       -7.14637806875270       -0.88484538864762
C            5.74415998936106       -8.28678115397618       -1.65108228535238
C            5.56793039518474       -8.22132852064674       -3.03286446728724
C            5.57250245836227       -9.45081468828165       -3.85720186599501
C            4.89827592259003      -10.59578440213170       -3.43584618193676
C            4.90459589891397      -11.74028406728248       -4.20227036726251
C            5.58425257003924      -11.76576080182319       -5.40297519093960
C            6.25752923255970      -10.64191765865444       -5.83665175621159
C            6.25204785661930       -9.49522325281328       -5.07339731389642
C            5.39655163042727       -6.96667100371569       -3.61716542728117
C            5.38548905738154       -5.82611010812207       -2.85096879729772
C            4.61777448828377       -3.62853270927526       -0.66643999973035
C            3.49451133252005       -3.50145634256835       -1.56378787457059
C            2.40776964963096       -2.73347810360242       -1.35129999018956
C            1.35268859988901       -2.69186241608546       -2.34848168425790
O            0.29926023307997       -2.12012809912191       -2.23647594387687
C            2.18172185301793       -2.00783196099607       -0.06566440808936
H            3.58376312432814        1.08629958782930        0.77555025886978
H            5.19829301393161       -0.61397860679065        0.84538932367842
H            8.70622741335512       -3.77560571648688        1.46737220379722
H           10.08675253337059       -2.88269137545144        3.29582275297703
H           11.09131408204372       -0.82107436728520        3.99728756442478
H           12.46963022705852        0.05813317873708        5.82738203918171
H           11.52371824279020        0.27453580801720        8.08518403984490
H            9.19980409736841       -0.40113610489310        8.51226741704768
H            7.82716061733868       -1.30124915617053        6.68823179590015
H            6.76975680996847       -0.59388739107753        4.66699442579717
H            5.38781880362333       -1.51972534981786        2.87212972125931
H            5.88115145783334       -7.20310580291382        0.18036684370531
H            5.90117640226060       -9.24572034470424       -1.18860991304076
H            4.35764459581680      -10.57284452627077       -2.50549565494473
H            4.37632107888368      -12.61681269856445       -3.86445242563489
H            5.58957540407050      -12.66231586523095       -6.00086867533947
H            6.79069955094630      -10.66225713082360       -6.77302931148079
H            6.78838608111281       -8.62342310657495       -5.40590305868136
H            5.26502471861218       -6.90004723997139       -4.68320537068607
H            5.29525954914824       -4.86285734659774       -3.32169841975479
H            3.51431494723444       -4.09466429232146       -2.45939032866194
H            1.51381911420482       -3.22291993740734       -3.27683827262991
H            2.08545380119291       -2.73634008103983        0.74633694375288
H            1.21557216114953       -1.49291412959131       -0.12238272909671
