66
 energy: -14.897639203185 gnorm: 0.000949070967 xtb: 6.5.0 (97a52f5)
C            1.87368694071052        0.07021207342062       -2.14356651351290
C            2.85014685531391        0.04440180731108       -1.42634864595129
N            3.97338824234199        0.02891604418344       -0.59292038633536
C            4.56304127573872       -1.05505977250283        0.08451126745495
C            4.16120576603596       -2.45574059525038       -0.02802999537294
C            3.40906244323752       -2.93015755861390       -1.09510239452185
C            3.05213775083643       -4.26986193160658       -1.18537570100947
C            2.23902320109969       -4.78305043477596       -2.28628745955015
N            1.57243477991120       -5.92157021565262       -2.20986145016807
C            0.94349093751859       -6.08442305847389       -3.40867803005309
C            0.11381965851423       -7.11792430234995       -3.86786784440113
C           -0.38203348162788       -7.05113839591040       -5.14336131864716
C           -0.08692901605498       -5.97421374562714       -6.00575453479382
C           -0.62317634597210       -5.96098273248223       -7.39459621408746
C            0.73409936209559       -4.95927541020181       -5.56820847411756
C            1.24400822637816       -5.00832329462306       -4.26793263642222
N            2.07641798928596       -4.17022583693267       -3.54302983964378
C            2.69864167730610       -3.02728554433032       -4.05574666844637
C            3.23563497145346       -2.04244453703736       -4.51438538096314
C            3.45749996019647       -5.13853529979855       -0.18026236358474
C            4.21970494540054       -4.69764776034700        0.89383603542201
C            4.64815751315841       -5.58537706815317        1.97222702097257
N            5.13710897758445       -5.12896223031665        3.11227889215040
C            5.43112938861990       -6.22138723809256        3.87343816020755
C            5.97889685216156       -6.31244114569933        5.16160407625692
C            6.19750066735058       -7.55244253095441        5.70171695894811
C            5.88686098979145       -8.73851888743192        5.00386371793493
C            6.17233633683385      -10.06297968940243        5.62130436900609
C            5.35918104835552       -8.66073015584577        3.73453287356418
C            5.12343956304163       -7.40379754570143        3.17062237645213
N            4.61449330771549       -6.99289954466467        1.94880280734108
C            4.25510949150044       -7.85672995000676        0.90891236262074
C            3.94964641519926       -8.61724146914876        0.01609580849744
C            4.56195679169765       -3.35357821806641        0.95203392737042
N            5.54990677569619       -0.65997399956855        0.86984142658895
C            5.64612739115280        0.69202218859997        0.72147222457738
C            6.51801636133348        1.61300924161733        1.32056159904256
C            6.39781545916954        2.94055992849110        1.00377498917860
C            5.42793680017587        3.40764010947366        0.09189866469109
C            5.32015171845635        4.86357023707527       -0.20092661229483
C            4.55973608484955        2.51344543112581       -0.49328012861578
C            4.67139307558675        1.15476407167346       -0.18550204199798
H            1.01260338313636        0.09291402292949       -2.77145104737284
H            3.09584780164895       -2.25033994254327       -1.86153356033113
H           -0.11532480133936       -7.94265520256609       -3.21728516059843
H           -1.01443902564020       -7.84165584213530       -5.50901479751390
H           -1.58455876095066       -6.47266954032031       -7.45025330141661
H            0.06398104146844       -6.45978422647869       -8.07880908181209
H           -0.77096232000763       -4.94055258268482       -7.74965956937597
H            0.98502542302618       -4.13631531729749       -6.21125505446173
H            3.70983474499474       -1.17434572757117       -4.91172731679116
H            3.16623218767641       -6.16881189199789       -0.24417170500837
H            6.21955653350779       -5.41378919507103        5.70052745658086
H            6.62191035134193       -7.63466415918671        6.68748572777850
H            6.04834512946887      -10.02624044225161        6.70411599113811
H            7.19541771391761      -10.37526912988780        5.40930488723861
H            5.49937611836241      -10.83029039562866        5.23715056517995
H            5.12885481689807       -9.54958098052089        3.17708870887443
H            3.68233516777750       -9.28577101566452       -0.76999919066277
H            5.14850686025825       -2.99835810951037        1.77871919176445
H            7.26051828344983        1.26502718941023        2.01593153390393
H            7.05800734112762        3.65730905234808        1.46095792092356
H            6.29620193174073        5.34746425924852       -0.15178525691689
H            4.66362480151118        5.35470172589261        0.51800071183845
H            4.91614566679790        5.03603764467648       -1.19903601537874
H            3.80319245919400        2.84663877597476       -1.17912656816719
