146
 energy: -27.110729669169 gnorm: 0.000644267429 xtb: 6.5.0 (97a52f5)
C            2.94064545864571       -2.45165915420353       -9.15798826901199
C            2.70046650103712       -1.53358482945770       -7.94446707405817
C            2.87229124128890       -0.07108177702064       -8.39991034753853
C            1.25883540422333       -1.71704495790945       -7.43380484511949
C            3.68753317016041       -1.90259569461007       -6.82567934024540
C            3.67843915889983       -3.18429062866489       -6.29373793903226
C            4.55173621476970       -3.54846255657546       -5.29428585577728
C            5.49598319217138       -2.65876604263681       -4.78845158716656
N            6.38079873397873       -3.06512003932991       -3.71857507414523
C            7.07026211734529       -2.12481180651263       -2.88490789515000
C            7.86475211924379       -1.10245198627178       -3.41770761767031
C            8.56968717075833       -0.25361288025649       -2.60302107022816
C            8.55289561812643       -0.39458113230334       -1.21222037264180
C            9.38248350396264        0.55951647460187       -0.33851774914607
C           10.86280688587731        0.48355172733982       -0.75811735160080
C            8.86327722419525        1.99680676438723       -0.52481976589040
C            9.28559189943676        0.19557547430002        1.15591575531030
C            7.80005819423199       -1.42146104248559       -0.68075960317256
C            7.06488589143029       -2.27570308784887       -1.48951776258779
B            6.34574901999953       -3.53694390316581       -0.95704024067762
C            6.06242847407641       -3.84549118925973        0.52609901755179
C            5.84163209686587       -2.83733996594055        1.45342875428488
C            5.63183583823380       -3.11830321020149        2.78829158944222
C            5.40232906363854       -2.01881555114596        3.83718642998642
C            6.54346124148508       -2.05874005679080        4.87011700407265
C            5.37243824015219       -0.61669218086564        3.19812419305295
C            4.05412489771198       -2.25584725287315        4.54333003614790
C            5.64323238187023       -4.46060102165251        3.18028288547179
C            5.82846008467779       -5.46896940042957        2.26955882916472
C            6.02592554883124       -5.19100331155819        0.91461393283035
N            6.15469849437774       -6.23914107105419       -0.02410985211398
C            6.19520872439896       -7.61977109169986        0.41164303391369
C            7.40577315175215       -8.30082012156928        0.47292556531083
C            7.43775139068225       -9.64684919094675        0.75661219244833
C            6.26952303930133      -10.36257499664119        0.99138775169652
C            6.34785169793965      -11.87241134303593        1.26626777719669
C            6.99252838774238      -12.57255425866144        0.05526621369940
C            7.20195817165884      -12.11989741036143        2.52381341569173
C            4.95317954483517      -12.48644326160932        1.49746711655226
C            5.06265647851632       -9.67232150480981        0.94306329007261
C            5.02325263150008       -8.32589353777716        0.65766407495617
C            6.23489538689000       -6.00170540153719       -1.40886741246187
C            6.28762276605380       -7.04418086812039       -2.32156550837181
C            6.42150941268814       -6.81695372196225       -3.68675481159877
N            6.55408729698495       -7.92729535726976       -4.58227805917129
C            5.99604997416171       -8.04468478557988       -5.87676721090359
C            5.17678953938893       -7.19104966551812       -6.61178262153172
C            4.76311878106101       -7.57749160278781       -7.86289017221180
C            5.13505209501703       -8.80908252725816       -8.42952424050291
C            4.63203620030721       -9.16971874384505       -9.83644865757052
C            3.09279334307210       -9.21982220766078       -9.82953289763417
C            5.11142113305266       -8.10352744876402      -10.83961587828668
C            5.16092133368645      -10.54180166229619      -10.29871426697327
C            5.93774145048669       -9.66218053859924       -7.69319483618182
C            6.36468405431533       -9.28524055616542       -6.41999728204900
C            7.17582819130004       -9.96351367630935       -5.43521815563525
C            7.80614336845795      -11.20775666451815       -5.44514773383468
C            8.54459973682695      -11.61387365286395       -4.34777455127655
C            9.27317360970751      -12.96692006298026       -4.30823809036061
C            9.02637249061004      -13.78692106435363       -5.58987125421088
C           10.78780987705173      -12.72455371772011       -4.17027673485364
C            8.76941279489385      -13.78647705656752       -3.10560788759445
C            8.64173401778607      -10.74868246540994       -3.24414485006677
C            8.02794300642049       -9.52043227219989       -3.21913250583783
C            7.27682197125210       -9.11612435296300       -4.32142929740048
C            6.45861644305767       -5.50514189545922       -4.15216349466714
C            6.37201559859123       -4.42472600325658       -3.28009042516719
C            6.28980937252041       -4.69510227451105       -1.90510668277331
C            5.46964925765900       -1.36127250025026       -5.29217822971965
C            4.59446505296379       -0.99542949916122       -6.29196546775203
H            2.26307671161725       -2.20356441016452       -9.97476190807101
H            2.78196503973609       -3.49820367998655       -8.90081225724665
H            3.96214855535453       -2.34781634063820       -9.52336276263878
H            2.17405156245678        0.16825409368120       -9.20190076242425
H            3.87939315193678        0.10733895510210       -8.77614716377614
H            2.68071146205892        0.62070366291245       -7.57990970978517
H            0.53538939232604       -1.43901047269783       -8.20004944401227
H            1.07839128994331       -1.09469138735622       -6.55752123010320
H            1.06594593428846       -2.75214972470471       -7.15462744270998
H            2.96873419481347       -3.90390682319110       -6.66418767673588
H            4.47215796946841       -4.52772196101346       -4.85967561748424
H            7.98348355562444       -1.03596813131015       -4.48508408120366
H            9.16874333634910        0.52472564232793       -3.04321897821177
H           11.00044552166577        0.80260455686204       -1.79038356381064
H           11.23617582279557       -0.53650522533868       -0.66967827595658
H           11.47980353901553        1.12422946921557       -0.12831194197938
H            8.95407496722907        2.31830722546966       -1.56170384123557
H            9.42504634051920        2.69755480626460        0.09253014248359
H            7.81261594812315        2.06589888028622       -0.24347027018620
H            9.64929954002113       -0.81539388327251        1.33860788819098
H            8.25749726363136        0.26360172245142        1.50892127071124
H            9.88604071485922        0.87591742283482        1.75969649102055
H            7.80974870674385       -1.60284357618124        0.37646232713163
H            5.81267825793279       -1.82296411234701        1.10332903955321
H            7.50728623243107       -1.90571679565858        4.38498915961844
H            6.57680312821467       -3.01798600956024        5.38530750856325
H            6.41671901057365       -1.28014964519961        5.62210805804745
H            6.31865733544500       -0.38888403860950        2.70934529816822
H            5.20072077666186        0.14943928835421        3.95408945550561
H            4.57374522878765       -0.53784462400432        2.46089578614915
H            4.04147493586872       -3.21148158465254        5.06576746837390
H            3.23699379554761       -2.25696770168071        3.82220569060526
H            3.85572971186688       -1.47420190084957        5.27647106195220
H            5.49357157600700       -4.70580120596406        4.21746543411516
H            5.81345780665023       -6.49526430657664        2.59133423145055
H            8.31449186275750       -7.76006818695768        0.27175482678186
H            8.38463828916988      -10.15769689405761        0.78407291366363
H            8.00807270770172      -12.21593723693996       -0.11112958892827
H            6.41829477165737      -12.38187913451563       -0.85124555089279
H            7.03843283394386      -13.65095669171221        0.20576264834926
H            8.21898152023725      -11.75304461118206        2.39112715606743
H            7.25978896815634      -13.18393854428841        2.75244346150422
H            6.77247283060995      -11.61202787845898        3.38716859516406
H            4.31781382566927      -12.35878998318988        0.62128473188133
H            4.45953997232022      -12.02826384425478        2.35425106728059
H            5.02985200804986      -13.55565048130530        1.69477637287520
H            4.13886704039800      -10.19461224426615        1.11781033997618
H            4.08290278506266       -7.80559953063418        0.59808038836678
H            6.22156728844660       -8.05390166796455       -1.96622747755515
H            4.86597092497907       -6.25178319073513       -6.19445827031968
H            4.12933689350243       -6.91686718631201       -8.42861407730248
H            2.66592199583981       -8.25524727157140       -9.55754161280630
H            2.73480628718037       -9.95845001347063       -9.11258274186598
H            2.70695816316547       -9.48923641362661      -10.81256440317960
H            4.71834307733602       -7.11856371614968      -10.59097457516146
H            4.78527829773291       -8.34541448226635      -11.85101535381400
H            6.19932620900692       -8.03907295761614      -10.84255768806091
H            4.82639714667281      -11.33670392986873       -9.63249109895085
H            6.25021657594807      -10.55175152815272      -10.33103955807689
H            4.79936712426079      -10.77798835119859      -11.29946885637065
H            6.24040712586255      -10.61701687358082       -8.07941619186681
H            7.70810966763243      -11.83060203160795       -6.31398373873158
H            9.39366514326741      -13.26008857705779       -6.47030679542169
H            7.96468458850119      -13.99197972353809       -5.72573576737021
H            9.54357784166228      -14.74512753800102       -5.54112919541001
H           11.15971272481619      -12.12662720830913       -5.00208676942545
H           11.33448717669335      -13.66734214287658       -4.16137139976937
H           11.02162807828333      -12.19554503005598       -3.24715936929056
H            7.69161145734058      -13.93636764757744       -3.16514098405233
H            8.98738860065972      -13.28350417434906       -2.16477851579918
H            9.24536493378794      -14.76644542699830       -3.07456490239109
H            9.22163280337646      -11.05831098698634       -2.39207473815475
H            8.13166989887560       -8.87120385300903       -2.36916968099829
H            6.60304102529010       -5.32223744892774       -5.19991212396169
H            6.10997017900682       -0.61196595775507       -4.86813683758313
H            4.61156518223745        0.01731666069348       -6.65422405101077
