42
 energy: -8.859105385818 gnorm: 0.000436562702 xtb: 6.5.0 (97a52f5)
O            1.60239209281822       -0.06234311020954        0.52836394510796
C            2.74258107563779       -0.15637437953242        0.15494799450594
C            3.19855752741975       -0.00677151675624       -1.21533143565694
C            4.48704891384919       -0.24450935341818       -1.52499272364048
C            5.06081166359161       -0.10035122710782       -2.84371220442868
C            6.21182744487518       -0.74399400890024       -3.33444787794711
C            6.98988336392708       -1.79815716395475       -2.67510689245357
C            8.34334594848856       -1.92568711935765       -2.96919169226069
C            9.10073177770970       -2.91556864012176       -2.38449929081033
C            8.51665432857034       -3.80185131003638       -1.50234728847644
C            7.17120877979094       -3.69912159053469       -1.21184051262123
C            6.41192203551111       -2.70907829619928       -1.79374909011523
O            6.53779354468731       -0.24295760310350       -4.56322609458701
C            5.61876997963846        0.72145734982243       -4.86859762988739
C            5.65407151146676        1.49874972275674       -6.11853158931636
C            5.86311383185321        0.84243753307704       -7.32764831494578
C            5.90916096770991        1.54590006770300       -8.51007575252977
C            5.75904262970786        2.91785113142378       -8.50441689942452
C            5.57303953521250        3.58621960842221       -7.31104327612609
C            5.52568858305169        2.88615295184565       -6.12657248496478
C            4.66867688262643        0.82382188194692       -3.83576144195152
C            3.54304191471464        1.72611239871581       -3.78979683928045
C            2.43385281667103        1.55351433719490       -3.04482288527207
C            1.38011087349587        2.55206215042011       -3.08250389745421
O            0.31320498991015        2.46687857953073       -2.53225331819045
C            2.18168085328309        0.30762900833739       -2.26121629553798
H            3.47919997555968       -0.38040122781124        0.91478639383972
H            5.15056211023707       -0.54588616872301       -0.73320790468501
H            8.78710548611502       -1.23484455543782       -3.66569522955024
H           10.14943567248170       -2.99996723631697       -2.61774830281183
H            9.10901398641599       -4.57780278375308       -1.04595382988570
H            6.71326507352016       -4.39838823536938       -0.53158361078108
H            5.35726745009639       -2.65078559575190       -1.59069435294712
H            5.98663410672711       -0.22706375078110       -7.32158992075881
H            6.06338256114531        1.02498713270619       -9.44080123903280
H            5.79418545626083        3.46794839267041       -9.43045341242107
H            5.47141939652369        4.65906529029563       -7.30594903639979
H            5.42483273795933        3.41135295898125       -5.19289643269733
H            3.58441203594192        2.59212151731552       -4.42452208087239
H            1.55348717226715        3.45367040716373       -3.65452534188233
H            2.09725002301894       -0.54008012316893       -2.94925322131331
H            1.20348288951109        0.39892257601673       -1.77444868953635
