22
 energy: -4.434162021973 gnorm: 0.000661111825 xtb: 6.5.0 (97a52f5)
O            2.05710042381614       -1.09038376906674       -0.06316489198962
C            2.66646164122818       -0.06104095324433        0.05702737836780
C            3.49939856174250        0.54003640420806       -0.97055516218564
C            4.04710192466569        1.75246021386688       -0.77011721386586
C            4.91866030821132        2.42443966046850       -1.70759524341548
C            5.17586256477849        3.78722836086534       -1.76720842615141
O            6.11320731533066        4.05636018532535       -2.71039989577106
C            6.48057737453643        2.86741623481697       -3.25096151660169
C            5.76773812125069        1.82576880109487       -2.67335356086413
C            5.94264166171210        0.41429463009853       -2.93261800803118
C            5.01020599873520       -0.52691766593638       -2.69834728837146
C            5.30355780735130       -1.92442147885571       -2.96675358007811
O            4.51299768578645       -2.82553412157255       -2.87582716622313
C            3.61957410177033       -0.18561617167005       -2.27125724191731
H            2.57138078312890        0.44435706506659        1.01001004581001
H            3.83352731020833        2.26652145238121        0.15108498457261
H            4.70757967985434        4.54212373471830       -1.14665064871815
H            7.23535688259083        2.76003898733577       -4.02095792870778
H            6.89053362323872        0.10775714201551       -3.33995345440436
H            6.30432819715709       -2.19476937387394       -3.27875832212988
H            3.04825091138956       -1.11954495540302       -2.19412202632483
H            3.13458712151677        0.40185561736082       -3.05819083299939
