33
 energy: -6.698691065504 gnorm: 0.000921053570 xtb: 6.5.0 (97a52f5)
O            0.98342508736627       -0.00050514530868       -0.59581141062407
C            1.95055867050974       -0.54305330161054       -0.12463627625606
N            2.85998153376817       -1.33680577692612       -0.82481651955075
N            3.85901009773534       -1.99729622966361       -0.19132489519982
C            4.44086877130880       -2.77751746666340       -1.05497240116489
C            5.56252718612857       -3.62937334581755       -0.72355757043944
C            6.16547984794479       -4.45696221775055       -1.67522663153391
C            7.23240169942259       -5.25984020272412       -1.32985470284564
C            7.71641094200991       -5.25427262858201       -0.03813959741939
Br           9.17591190111334       -6.35821524330720        0.42725931037565
C            7.13511202889986       -4.44364946084917        0.91432038105281
C            6.06829892648471       -3.63766670961156        0.57731731206215
C            3.80710981986805       -2.68936669492404       -2.42460099632660
C            2.72672315467905       -1.60660131400600       -2.27040193552094
C            2.98580561713672       -0.37936352403073       -3.10004923055476
C            2.26625639872019       -0.13104856952377       -4.25788970618863
C            2.53267280166223        0.98643063900264       -5.02135622292415
C            3.52508934570812        1.86476438947001       -4.63867870461037
C            4.25120791133465        1.62415679032951       -3.49133915839474
C            3.98244210312857        0.50674199836041       -2.72989458775417
H            2.12567283695041       -0.41651917303351        0.93300665982176
H            5.79137612909748       -4.46582889008696       -2.68377564025979
H            7.69872937207753       -5.89952515908249       -2.06131194456226
H            7.52516790289949       -4.45013430343386        1.91904129527836
H            5.61061947142022       -3.00227606861276        1.31478626581074
H            3.38718787825357       -3.65635788295435       -2.72165884681665
H            4.54786983184188       -2.39592575871035       -3.17459529020071
H            1.71571583535739       -1.99329670130054       -2.45736230290584
H            1.49380078681800       -0.81895504112001       -4.55600746724074
H            1.96497855579099        1.17297138273552       -5.91826522859240
H            3.73251183353178        2.73772207514325       -5.23556299428669
H            5.02730632024927        2.30843601892951       -3.18990627756618
H            4.54117940078370        0.31139351566465       -1.83139468466271
