33
 energy: -4.006077867603 gnorm: 0.003052346786 xtb: 6.5.0 (97a52f5)
O            0.15519791547557        1.09851641359543        0.73651239369837
C            0.88626524979682        0.73858292506789       -0.11580029798207
C            2.10842310175885        0.19367218317884       -0.14995220120573
C            2.87270648450871       -0.01544869426214        1.10162861190750
O            2.39900204145180        0.58655707818215        2.07576259874040
C            2.77219648697239        0.50479429340214        3.37199063505360
C            2.24745006421463        1.04371680433162        4.49125155827957
N            1.22690762446998        1.82221879739094        4.64723197850393
C            0.77814043225099        2.28707418463938        5.77225803101053
C           -0.27512682474920        3.09281419170368        6.17264179824475
C            1.22085852828493        0.02806552888247       13.28769016396107
C            2.33123991198418       -0.09219878561492       13.83588827670774
C            3.66266229781982       -4.00058122834705       10.60234553385646
C            2.34959490306408       -3.99121907518133       10.20359934857261
S            2.12992413307971       -4.40263157058431        8.58899285435451
C            5.14076510101413        2.89498759636661        1.63615946950489
C            6.05729497424627        3.86371795957241        1.55090977029639
C            6.49139611461767        4.39812281237486        0.38837360556098
C            6.15603986013194        4.10656860570759       -0.85650491473306
C            5.32820672347884        3.22228854209252       -1.27578061297161
C            8.31775798054714        2.27587737054911       -2.91199248670759
C            3.65928199919223        1.29096846584129       -0.22325184505778
H            2.51565741252069       -1.14746108886317        0.24300571504873
H           -1.56899389583521        0.12029961932409        1.61239272598803
H            2.29722199613163        7.71575147161944        6.98047268943459
H            0.58545868619163        3.71912556481141       10.57436542146985
H           -0.23320759364696       -3.83240042987126       15.39980405689739
H            1.71914802468963       -4.58535801784408       10.84327858638855
H            4.80573606721690        2.46894583816292        2.53643807523519
H            6.49172493743190        4.24741430027189        2.46022344453949
H           10.54762567708928        8.22915688437766        0.27610421564351
H            7.49528893174843        5.49603941613598       -6.25465716049232
H            2.33904467760684       -0.04329798486134       -2.23081211036415
