60
 energy: -11.440962244789 gnorm: 0.000468693494 xtb: 6.5.0 (97a52f5)
O            1.83007969817415       -0.73336498813273       -0.89568669553832
C            2.71563831370780       -0.21013840444354       -0.26736514512895
C            3.18454396395055       -0.63850770802587        1.03934985936055
C            2.56114543151296       -1.72846539120393        1.61853753365746
C            2.91166537856377       -2.22650686024783        2.85998958027197
C            2.18155513214289       -3.38199589899590        3.35304999849554
O            1.28883578348283       -3.94291064975008        2.76899066237898
C            3.96064032459906       -1.59830869041775        3.59011894653304
C            4.36635012114409       -2.03832453282561        4.87094170401566
C            5.39141372179591       -1.43960349680530        5.53787550245653
C            6.10076222215328       -0.35913755866483        4.98297195532248
C            7.20350210617853        0.24947569788602        5.66747533485314
N            7.74291482347389       -0.31998929145295        6.83942361777625
C            8.35612994118197        0.51425678184576        7.89859927515540
C            9.88599931077085        0.44480572908618        7.85523045799900
C           10.36271484710051       -1.01536055332850        7.92470330678927
C            9.69683117360108       -1.86146606421195        6.82689116504029
C            8.16966478842022       -1.74364224137565        6.89073086164111
C            7.75782233901390        1.40960424201822        5.13541726424789
C            7.32993297305579        1.97909050714267        3.93999018792933
N            7.89131445953404        3.19362193473210        3.49429554150458
C            9.29695750027828        3.55437072435007        3.79132521416950
C            9.38659404699142        4.58981952101965        4.91693098639931
C            8.53561052478877        5.82583519332993        4.58269711496285
C            7.08778557014519        5.42272366092903        4.25598761187520
C            7.04593536763781        4.36608726887823        3.14579169772602
C            6.30452518665897        1.31195749879043        3.19215097038416
C            5.92995845279389        1.73953320673000        1.90551617394567
C            4.93864042648657        1.11988469295599        1.20717141232742
C            4.24083957115180        0.01146536525879        1.73949435332659
C            4.62209058128061       -0.47740153694983        3.01857033887643
C            5.67827449140012        0.16083996084336        3.73348986922000
H            3.17707638289689        0.64739083845599       -0.73217811734820
H            1.76553839790684       -2.21139542239203        1.07825305406714
H            2.44309438615821       -3.79360555080804        4.31578321396699
H            3.85367624911384       -2.86065407535633        5.33521286022282
H            5.64950802679519       -1.77357721247806        6.52689121588615
H            7.98731658302043        0.15123649429455        8.86282426996394
H            7.98909967783092        1.54142279237049        7.80320875979436
H           10.32515761280486        1.03983731020406        8.66761242075517
H           10.24726078939104        0.89996689513619        6.92600485011888
H           10.11406396040235       -1.43333295071608        8.90765631780123
H           11.45747502280015       -1.07158176545370        7.84909612816512
H           10.00955465760943       -2.91217062950796        6.89913614520642
H           10.04155630067416       -1.51597856767007        5.84487365593666
H            7.78459142081067       -2.18615544277116        7.81398864015663
H            7.70830572084265       -2.28659560302924        6.06015456784243
H            8.55480379194203        1.88581115917018        5.67090709601658
H            9.73872958226255        3.95361216691630        2.87311715347225
H            9.85903644549039        2.64426324486384        4.02496706249399
H           10.43201731539979        4.87197430195843        5.10273296346646
H            9.02876099010908        4.14590026878312        5.85295990538631
H            8.97192428300725        6.34704352543088        3.72202814369127
H            8.56040155246915        6.54964507129656        5.40906451478132
H            6.49095364062349        6.30213487924429        3.97792257772722
H            6.61372834451557        5.01469040574468        5.15674114206003
H            7.40685520553851        4.78193301305789        2.20052843290089
H            6.01863949623640        4.02985940089081        2.97494042465383
H            6.46793107597138        2.55416166991590        1.45488313217578
H            4.68930451418380        1.48123566348087        0.22639281064774
