73
 energy: -13.343903294688 gnorm: 0.000176388591 xtb: 6.5.0 (97a52f5)
O            1.98279597177409       -1.34187658546373        0.15638301281398
C            2.83875369845817       -0.49456614848137        0.23497107998009
C            3.47529052123313       -0.05197422065526        1.46273764111197
C            3.06415392015603       -0.64517027930159        2.64547600257388
C            3.57995832458512       -0.29892037647392        3.88752289261224
N            3.08253415605600       -0.93653472964089        5.05896342425323
C            2.47249024613971       -0.17345973346800        6.17530124224111
C            2.82129779370316       -0.79735473593852        7.53175975655021
C            2.43332264742238       -2.28586192475384        7.56076769672083
C            3.06157625540760       -3.04293024081566        6.37783907344441
C            2.71042541210324       -2.36833722251578        5.04635365527696
C            4.60312746747288        0.69178661806032        3.94795444884635
C            5.22169402442403        1.04523020282017        5.16778149602601
C            6.20897756492654        1.97894414421648        5.22118036185991
C            6.68427773210448        2.61595494107037        4.05416253970326
C            7.74287367269990        3.57439311003287        4.09856279401178
N            8.43487621986743        3.85481541508505        5.30375607074125
C            8.93852015043747        5.21430502672278        5.60551214613921
C           10.45731275822388        5.30775352665033        5.42504823242208
C           11.16804862243533        4.22690782852790        6.25582289319146
C           10.61883932708749        2.83003291126062        5.92193711103424
C            9.09600799165666        2.78242696367580        6.09110537474045
C            8.10261796886252        4.22553987576238        2.92346076741732
C            7.50587930587727        3.96219762547952        1.69489555535175
N            7.91103155630890        4.68120015804032        0.54201497654820
C            9.31941422990844        5.09384483911450        0.34526805150044
C            9.50821412222110        6.59397540261819        0.59301213132706
C            8.53581032634447        7.41132847149705       -0.27304151683145
C            7.08462398550071        6.95370039848073       -0.04937569254796
C            6.94074172809013        5.44524164601560       -0.28298203483607
C            6.49317447431074        2.95739925710455        1.62632916775414
C            5.92854683471539        2.55432982436839        0.39622164062347
C            4.96441484774041        1.59814966441811        0.33278593478450
C            4.48068909564349        0.95388452214916        1.49966458656980
C            5.04397025897055        1.31697251604124        2.75354401940378
C            6.07434123611061        2.30348488577180        2.81237310233879
H            3.13661647007643       -0.03929487653208       -0.69692991099837
H            2.28791848456239       -1.38576428994594        2.59455231871245
H            1.38837506312526       -0.17704086304733        6.02531928648466
H            2.77896967376064        0.87564928698283        6.11287007323320
H            2.33338925875403       -0.24857526837678        8.34917519119917
H            3.89821651112597       -0.70080309481209        7.71294247552876
H            1.34127588453509       -2.37866291708503        7.51358083130067
H            2.72599280061949       -2.74546346530633        8.51536056039603
H            2.74614969363371       -4.09556811488144        6.37507438089066
H            4.15191246218692       -3.06053031188842        6.49524120833720
H            1.63729825191243       -2.44355716729214        4.84627601263035
H            3.22186484502393       -2.85674068174233        4.20976140509616
H            4.91790141578042        0.54134325599798        6.06647053460190
H            6.62694141322719        2.25775927429303        6.17151728215575
H            8.66355493646080        5.45120158727087        6.63812127463117
H            8.40824549640862        5.93870068543451        4.97813276435521
H           10.81960371927600        6.31002296139733        5.69296318612995
H           10.70976149708051        5.17586875229400        4.36644157212891
H           11.01809223180125        4.43115413288824        7.32320876033009
H           12.25516347449785        4.26625179032190        6.09886352703715
H           11.10280476290898        2.06152229352000        6.54059230391204
H           10.87281413454253        2.57893326221472        4.88489568281747
H            8.81918971763822        2.90563848222075        7.14251384322815
H            8.70470716286408        1.81139608689495        5.77112877996469
H            8.88169442895225        4.96087911515856        2.96486459608588
H            9.60191868493935        4.83980026108742       -0.68123696033796
H            9.96225296758759        4.48926319761326        0.99398179004754
H           10.54877069111962        6.89133359141833        0.40226666225408
H            9.32683783405278        6.81667744075430        1.65096596443404
H            8.79778431175884        7.28611015448545       -1.33097216369320
H            8.64174662432976        8.48618033425487       -0.06934084852107
H            6.39428566636716        7.51463862093870       -0.69456691872567
H            6.78528165700607        7.18784096537808        0.97947735600493
H            7.11282465356232        5.19870219653125       -1.33503852216292
H            5.92647855924125        5.11190040280901       -0.04053488406615
H            6.30089457383098        2.99504300051099       -0.51098879090115
H            4.56801553647029        1.32055634075065       -0.62667026022634
