16
 energy: -3.113995035292 gnorm: 0.000547274597 xtb: 6.5.0 (97a52f5)
O            1.23072009807090       -0.31036858086329       -0.68327771214051
C            2.24192661972873       -0.09996044657293       -0.06719343106665
C            3.07288065841288       -1.10852495220358        0.55957135732721
C            2.72221303352856       -2.44593937242555        0.46779365222788
C            3.49530775935682       -3.43666764463933        1.05699458326209
O            3.16460362476470       -4.78328787579156        0.97961355553443
C            4.64645320544263       -3.05520840655017        1.75141994157350
C            5.00886237156592       -1.73715135683402        1.85288451797081
C            4.23646046994434       -0.73380465641176        1.26280662388576
O            4.57461572642518        0.60335242912960        1.34548766701638
H            2.54983381670609        0.93436056574619        0.02396544051726
H            1.83147646938407       -2.70702310249208       -0.07335284748147
H            2.34321808006752       -4.91158515962216        0.47370502905064
H            5.24271875208568       -3.82667632236541        2.20638087460695
H            5.89821721164668       -1.46568876928528        2.39301021654939
H            5.39967210286929        0.72357365118137        1.84694053116635
