32
 energy: -7.241056660350 gnorm: 0.000746581314 xtb: 6.5.0 (97a52f5)
O            1.17870587600973        0.51647580008126        1.61768356542006
C            2.10042503843291        0.42171558833301        0.85166530470630
C            3.18907895586823        1.37731469296900        0.73969444718854
C            4.26316829436781        1.32232929288632       -0.13329751622184
C            5.05942242767968        2.45722463092059        0.10090100988293
C            4.43928819395126        3.19659714845894        1.13669265558966
C            4.98791852533516        4.39041962196063        1.60462336617674
C            6.16540034487231        4.86684447267569        1.04585549978461
C            6.76199076579659        6.08828376238032        1.49516028396718
C            7.90689457316109        6.55441355402978        0.95364182766750
C            8.57679870412621        5.84640069475742       -0.09595593782099
C            9.75871312827934        6.31196659315299       -0.66525764792209
C           10.38345548443365        5.60719353251450       -1.67761562742100
C            9.85084154791965        4.42897439934219       -2.14568754881616
C            8.66394650368109        3.91617431415769       -1.60798771106838
C            8.08599052814421        2.69951713975798       -2.06843921684423
C            6.93589788760848        2.22409209935472       -1.53057372675119
C            6.27043670816324        2.92227137215815       -0.49207421294348
C            6.81072771068047        4.13225496287321       -0.00649636508586
C            8.01859117753405        4.63218450915944       -0.57094656428223
N            3.29633063250474        2.51193441253291        1.51025844189962
H            2.11300458801755       -0.43884371720146        0.19799616204274
H            4.44473944939396        0.55519782937723       -0.86511187886200
H            4.49843786345079        4.93123494400321        2.39237457061196
H            6.27535255810901        6.63693953159746        2.28271268862098
H            8.33677693745856        7.47519449925964        1.30768682155525
H           10.18518738906649        7.23259903424098       -0.30664224215217
H           11.29801552850537        5.98569589695547       -2.10361007279032
H           10.34472255750454        3.88739346798104       -2.93355798345496
H            8.57993795867838        2.15790825709223       -2.85625379645238
H            6.51186949746967        1.30290627465691       -1.88939060889032
H            2.62164266379576        2.80214138758059        2.21550201266548
