32
 energy: -5.952207827112 gnorm: 0.000170269675 xtb: 6.5.0 (97a52f5)
O            0.86237157529506       -0.70670066791257       -0.18223859970334
C            1.43946909402353       -0.78542872920976        0.87220141130287
C            2.70136026323265       -1.45074968363752        1.09764840759783
C            3.43399536405264       -2.08971775132070        0.14162407623582
C            4.63471840075758       -2.65203721990689        0.62542845901524
C            4.84356300817804       -2.45205948854860        1.96572372231793
C            5.98048230399838       -2.89894864335022        2.72812941339752
C            7.07555079073982       -3.56140350692246        2.24113109496135
C            8.04998443787419       -3.86032811339326        3.21989416767314
C            7.72621575653845       -3.43971800003052        4.48123346991017
C            8.53919496982776       -3.59668760388020        5.68086524831996
C            8.07510432497002       -3.15603433420730        6.85783541050847
C            8.82668252270779       -3.23501393914204        8.14707598109696
C           10.33702233952049       -3.42436176423058        7.93011080900781
C           10.59798037241944       -4.52808788773451        6.89655304183294
C            9.90716356436769       -4.22296776060616        5.55349369202422
S            6.16593816165979       -2.66032933643276        4.44415602650326
S            3.51028691854088       -1.55197875441844        2.63475442458502
H            0.96760133049892       -0.31247781371888        1.72280672491260
H            3.11480902239694       -2.15152069149084       -0.88745367763220
H            5.32625106880222       -3.18997651753405       -0.00379599012643
H            7.18911403332226       -3.82327722440715        1.20090529218916
H            8.97250792922644       -4.36856866615149        2.98667306160332
H            7.09876199854120       -2.70175338393765        6.87516004946441
H            8.43606551096055       -4.07381680830856        8.73658858289499
H            8.63652027663878       -2.33493931728628        8.74729168812974
H           10.84430675903027       -3.64950577881741        8.87845651741298
H           10.77519182266322       -2.48335210925218        7.57578668471656
H           10.22545282794200       -5.48232479297826        7.28868573356169
H           11.67755471672628       -4.67252675073617        6.75214466615967
H            9.81866741077341       -5.14400068324961        4.96464797005161
H           10.53924112378203       -3.55178627723612        4.96048244007448
