34
 energy: -7.274427372086 gnorm: 0.000560582396 xtb: 6.5.0 (97a52f5)
O            0.60910966443653        0.66597689350381       -0.25798946049045
C            1.30337637107604        0.82612180818963       -1.22713484767948
C            2.54171184836698        1.58881189965237       -1.25075738209933
C            3.08351919931287        2.25229387321379       -0.16079869816007
C            4.25285951324741        2.84652351666759       -0.58820744993800
C            4.40127784042959        2.53359092720328       -1.93617323080292
C            5.48936579885967        2.94148948424398       -2.82500708510540
C            6.57000717574859        3.70958856453493       -2.39322327504400
C            7.56811981959166        4.06406501084543       -3.26375874823911
C            7.53880705913332        3.67101968022319       -4.60711462014426
O            8.55306221276536        4.03678970604382       -5.46520981218590
C            6.43973239763023        2.88827737489910       -5.05571364331610
C            6.31819631043734        2.43296869758296       -6.42190744029920
N            5.32091185538712        1.71685807319137       -6.85777813659699
C            5.44511973120885        1.40951347309487       -8.20493259889580
C            4.53484025363644        0.64928207567523       -8.95269386015023
C            4.78116820700709        0.41472001343737      -10.28166903758828
C            5.92337704681385        0.92309888124115      -10.89742674073181
C            6.82820814399594        1.67048304652708      -10.18339874506614
C            6.58948708948680        1.91183677984133       -8.83912824714376
S            7.50696636967048        2.79223048894418       -7.66385894678987
C            5.44617844617360        2.54562259489124       -4.15041591741937
O            3.34989518004721        1.75996492885791       -2.34735720944797
H            0.97844571645121        0.36430380450912       -2.14927256357718
H            2.65984881098425        2.28492894471437        0.82888329493618
H            4.92154485904328        3.43977250001934        0.01145796808179
H            6.61833302683752        4.02374222086679       -1.36557465479483
H            8.39413757097745        4.65658833701354       -2.91379840945175
H            9.22850376815080        4.56393018724668       -4.99821767548796
H            3.65572099951318        0.26067683421464       -8.47035945251776
H            4.08387326962641       -0.17089913872438      -10.85769795826861
H            6.09790823103020        0.72749203391706      -11.94264621222089
H            7.71440642349842        2.06822326586594      -10.64652595456954
H            4.61348978942342        1.95296321784978       -4.48577324878644
