34
 energy: -7.398406064007 gnorm: 0.000635934028 xtb: 6.5.0 (97a52f5)
O            0.66495034351904       -0.51695862113237        0.49116347845317
C            1.40113162776193       -0.87956188573600        1.37229131633451
C            2.57305332337619       -1.69122137687348        1.18792106593235
C            3.11019484674755       -2.21196689838910        0.03044732485281
C            4.29002581066420       -2.97810114959448        0.20980874481424
C            4.71657445357948       -3.07907832822901        1.51996017575052
C            5.82716068323186       -3.72781334986203        2.16596036244531
C            6.80576096750863       -4.44324747000998        1.47421653404326
C            7.84223630384023       -5.03253304709469        2.15152253092820
C            7.95190071272232       -4.93815855443917        3.54492070792312
O            9.00156164809219       -5.53710753970252        4.20615989411905
C            6.95602936299267       -4.21160034503232        4.25477306731662
C            6.98071831701815       -4.06269273605364        5.69157927521146
N            6.08173197940600       -3.40172767919770        6.36357873986648
C            6.33127031616385       -3.41383238957047        7.72822747241223
C            5.53779330314716       -2.79538356371093        8.70463143487717
C            5.89816924260483       -2.88641268143177       10.02521429170045
C            7.04204900257599       -3.58493945333007       10.40735300842445
C            7.83337430335753       -4.19846211681683        9.46667215988913
C            7.47729913065262       -4.11339490149550        8.12928453886285
S            8.23019175807830       -4.75885354839773        6.70978838066626
C            5.92039393629604       -3.62449129870286        3.54281483236458
S            3.60230353129568       -2.21383268694309        2.38531501862880
H            1.15823360502821       -0.56446201903942        2.37917122938230
H            2.65323866454854       -2.04319126622151       -0.93724114423774
H            4.81749209153582       -3.44512004005384       -0.61230787463298
H            6.74115010622004       -4.52562516169851        0.40333093930021
H            8.59021164913841       -5.58023779506490        1.60703040650511
H            9.59552438411741       -5.98928843414860        3.57837058888841
H            4.65645618534245       -2.25882370190318        8.40102458301449
H            5.28952703493331       -2.41242509078691       10.77766538539814
H            7.30708841138192       -3.64435896248616       11.45024084902583
H            8.71870962296022       -4.74162666590101        9.74847214739537
H            5.16122334016173       -3.06772924095109        4.06551853414652
