46
 energy: -10.122965221150 gnorm: 0.000174636035 xtb: 6.5.0 (97a52f5)
O            0.73736628645865       -3.29123822611111       -0.85854469352332
C            1.89584921072925       -3.34919876160198       -1.17039808762497
C            2.67099733870764       -2.25642331981652       -1.75333027921480
C            4.01261645191236       -2.41473315943276       -2.08418327630427
C            4.72625907295871       -1.37233685807429       -2.62649141765483
C            4.12550900872897       -0.13538120950241       -2.85668287264684
C            4.89343829192281        0.99422971561973       -3.42226288540251
C            6.21513319861652        1.23311853607543       -3.02078209325176
C            6.93843041787902        2.30203296554674       -3.50489390715489
C            6.33755620309275        3.16086938387639       -4.41308838884473
C            5.02248353244587        2.92880813904459       -4.82907919792101
C            4.30202062176934        1.85870415882602       -4.34464259933373
C            4.62412106207998        3.99303079688914       -5.77067909204831
O            3.56281823851085        4.10876529830819       -6.34085776651756
C            5.79277222354489        4.88939232863416       -5.86403750118839
C            5.95505312979632        6.06439299879452       -6.56549605838044
C            7.16073517012075        6.76058681507390       -6.46824603109551
C            7.34119494530535        8.04682131460071       -7.17455831274621
C            6.30408365979003        8.97683355653650       -7.23550566588186
C            6.47120335135528       10.18245671350150       -7.87378881909946
C            7.68394016132442       10.50062049599224       -8.47524881566177
C            7.88327754837064       11.77971442998387       -9.15269550359607
O            8.89800699579004       12.13231695021024       -9.68991336945087
C            8.71887825267005        9.57767311903248       -8.42094418501254
C            8.55278722223009        8.37142155731800       -7.78281314611514
C            8.18356731713990        6.23586468738511       -5.66604854261217
C            8.02412182103714        5.06031536201349       -4.96414301575890
C            6.81783696195633        4.38249128011952       -5.05854848987634
C            2.77957256995843        0.01411281209026       -2.52510862729678
C            2.06696809422193       -1.02876068103774       -1.98348263056778
H            2.39606481430550       -4.29258120753660       -0.99837396020092
H            4.48880308149314       -3.36451468509611       -1.91116511912228
H            5.76006512526379       -1.51034374837053       -2.89151761707005
H            6.66286734923963        0.57553477142723       -2.29637218690056
H            7.94791810618846        2.48371988894235       -3.18116547266472
H            3.29503752752031        1.69896592313240       -4.68317703964620
H            5.15460478660006        6.43163520068250       -7.18083673297374
H            5.36761140793254        8.74881170987891       -6.75674281877791
H            5.66331419815637       10.89303153986006       -7.90862836366143
H            7.05601229336713       12.47610170104474       -9.17755693904136
H            9.65596278402248        9.82666250936559       -8.88921289666543
H            9.35958955580837        7.65975246644289       -7.75928177671897
H            9.10587313271558        6.78322095466786       -5.57998575910586
H            8.81044785388724        4.67270979458557       -4.34099234526306
H            2.30347477184196        0.96669279662746       -2.67982563689060
H            1.02885485124988       -0.90843081549860       -1.72415006353058
