50
 energy: -9.345702913512 gnorm: 0.000845495444 xtb: 6.5.0 (97a52f5)
O            2.28367303126129       -0.56755749478653        1.56841607386585
C            2.57356005523842       -0.00761950895998        0.54226477004145
C            3.20086314705349        1.30016826282308        0.43698480768850
C            3.50361719720396        1.86079506598775       -0.80389265730197
C            4.09538151652280        3.09495193794219       -0.88642371164322
C            4.41133570640016        3.82399109162359        0.26817554881572
C            5.03076999977875        5.11611934657484        0.13949106771384
C            5.42224866090260        5.91099543412636        1.16009307366628
C            6.03482204095754        7.19118065350876        1.04280646796704
N            6.37179377751877        7.80078313098576        2.17872053618531
C            6.91787288331576        9.01778663044626        2.10616840488341
N            7.22978525972292        9.66163272065465        3.33683688261243
C            7.49186493298735        8.82149444328731        4.51070942073759
C            6.20785005308449        8.62960271314939        5.31251870571799
O            5.64783377612263        9.88136559968872        5.68986935136331
C            5.36609960416259       10.70648717177169        4.56518965576664
C            6.61234103310272       10.95061441215609        3.71469640030110
C            7.21168705386392        9.65559487085582        0.87657420641946
C            6.88408137931369        9.01866982943429       -0.28750389144301
N            6.26856366715465        7.77122511655038       -0.21871640180689
O            5.94060169523062        7.17941092614204       -1.28871883943379
C            7.19418247765504        9.55432779487509       -1.65157488676235
C            7.84069242141264       10.95254505613829       -1.66373967936140
C            8.75077627541711       11.15923611557904       -0.44600170570133
C            7.95128227033630       10.96439213961130        0.85159901198057
C            4.10292120375338        3.25279507952342        1.51052016876065
C            3.51004628275814        2.01829971063689        1.58881506107487
H            2.34271607027316       -0.53157467612905       -0.37555394708150
H            3.26906404438190        1.31251091370492       -1.70028870805314
H            4.32569664613666        3.51696717525759       -1.84972028668200
H            5.19455731538716        5.46912647290617       -0.86061386577308
H            5.27361687003872        5.56553672111835        2.16604478334672
H            8.25612238046812        9.31020008134348        5.12261022652355
H            7.90808472198256        7.86535563709086        4.17533135747566
H            6.37680110573341        8.04871739631223        6.22860769746230
H            5.45663630511564        8.09541865005054        4.71900986797597
H            4.94093284407417       11.64489088515246        4.94459540389820
H            4.58471954041763       10.21018954334971        3.97779043352697
H            7.34878625947069       11.53683791850510        4.27204411159174
H            6.36038323552591       11.51799391863730        2.81538099143495
H            6.26833259854475        9.55240476716889       -2.23960728402848
H            7.85464434634209        8.83669687879274       -2.15195722609819
H            7.05494528857559       11.71765621519179       -1.65709557949530
H            8.39910245511296       11.11438778289631       -2.59566313270988
H            9.22445066221289       12.15021521493538       -0.47195801678636
H            9.57311982939978       10.43449555548101       -0.47832111357742
H            7.23027867240079       11.78302048513990        0.94977903093903
H            8.61044436015120       11.02675807957931        1.72594930018531
H            4.32740988523676        3.78680793884477        2.41610479144401
H            3.27276716079951        1.58340819434403        2.54483332237399
