61
 energy: -13.956162987502 gnorm: 0.000783896097 xtb: 6.5.0 (97a52f5)
O            0.81959183013404       -1.13998110358941        1.33763163763165
C            1.60790246254222       -0.26006247579731        1.11724868569524
C            2.81643169943849       -0.01596271126200        1.88918729876724
C            3.22052677557995       -0.76567869703933        2.98316533806677
C            4.40331582616406       -0.21592746677270        3.42721425765608
C            4.70012370968330        0.85742773946592        2.59818145397512
C            5.83752696688921        1.66668070163434        2.74329559007973
C            6.85965922906534        2.30187189542163        2.96347240274783
C            8.04718261069757        2.95747151231758        3.29813295135869
C            8.42852882372605        4.07137877201770        2.54843521148939
C            8.83723248029080        5.05627583519028        1.94973717560702
C            9.46028358605360        6.18056188957649        1.38677144243015
C            8.97008190214044        7.00113497317714        0.37873111081377
C            9.91725762423158        7.97692373171872        0.15085401780890
C           10.96836893194701        7.73174144101625        1.02495052848271
C           12.18875204729679        8.51565841565632        1.13064954872720
O           13.08774972759114        8.27550113358894        1.88870808514561
O           10.68994564113797        6.63180707333069        1.78439770802314
C            8.76893438657120        2.47896663366603        4.34514093534418
C           10.00342940353508        2.98536936177297        4.85232059363071
C           10.78082541253512        4.03689259054482        4.41658033200492
C           11.94315990154759        4.24452113363170        5.17127588485425
C           12.08980809190236        3.35689453558647        6.21020340598122
C           13.14158181231880        3.28568506208932        7.16745930163295
C           13.17498571443273        2.35492823346467        8.15694975307754
C           12.14886133578834        1.40222323329535        8.27157648611356
C           11.19556655243591        0.62630997377419        8.27166053358731
C           10.02855045301828       -0.14768975963383        8.09035410686678
C            9.61037368235955       -1.23150099889076        8.85158654095346
C            8.42007945003532       -1.67492212919215        8.31383256022246
C            8.13345961566087       -0.85236423214807        7.23290876280597
C            6.97569068303827       -0.94062745413559        6.35993398943643
O            6.77513524965243       -0.20845296899185        5.43015942570681
O            9.11419714946320        0.08262675204154        7.09230655086332
C           14.22659817665398        2.33348653176601        9.07774204207920
C           15.13879714263740        2.30898588505111        9.89254215500708
C           16.17931471108305        2.26406809255590       10.83502720385935
C           16.77184296747481        3.36180975748493       11.44762584956933
C           17.74104519404512        2.88179688475949       12.30213413838209
C           17.72317285126806        1.49800831733224       12.19517404850928
C           18.58474231203791        0.57982568717254       12.92302302341862
O           18.55336049046392       -0.61517700742917       12.81803060875764
O           16.76744588596035        1.11741614364212       11.29693855718934
S           10.75437518552680        2.24444948390972        6.23943468406135
O            3.72404751568652        0.98268309099452        1.64936598155757
H            1.39652199416008        0.39413470066204        0.28189296348806
H            2.69746746251878       -1.61288491700561        3.39532861651736
H            5.01224854169482       -0.53009105563117        4.25901310807517
H            8.02416700958360        6.88876543582882       -0.12514706045408
H            9.85781847480806        8.77813333478337       -0.56706778371288
H           12.30668121283043        9.37792789269046        0.48808348653443
H            8.36609443040527        1.61882595982827        4.85972080555959
H           10.53226586791144        4.65440354974946        3.56912534549824
H           12.65684646551733        5.02650743770515        4.96073021084193
H           13.94067716520189        4.00353458409547        7.10172190028972
H           10.12672411066936       -1.64369484694065        9.70261379085571
H            7.82420543891813       -2.50219597644122        8.66196287071601
H            6.24158842008441       -1.71118655743481        6.55072601694174
H           16.51384562182674        4.39454519429924       11.28090837690253
H           18.38971312557771        3.46535797033041       12.93415906555412
H           19.31005145186635        0.99057179317462       13.61263638393163
