64
 energy: -14.302885247786 gnorm: 0.000744378706 xtb: 6.5.0 (97a52f5)
O            1.69006249551057        1.10749365523538        0.26790782101779
C            2.58058205792498        0.30552263796181        0.37282196422176
C            3.33456908714809       -0.25850845050908       -0.72269221256711
C            3.14632710709366        0.04002987240251       -2.03759741236436
C            4.01806321709165       -0.65310115604418       -2.90761442042728
C            4.88704500063537       -1.49297714791285       -2.27251914179397
C            5.85482202348825       -2.30135718138154       -2.85864351566582
C            6.70824216509007       -3.00805016627670       -3.38119154377033
C            7.67862639917023       -3.81167922395771       -3.99222760247735
C            7.27530111879076       -4.67242761526726       -5.02070900355406
C            7.01112680017666       -5.46269223020347       -5.91868435292546
C            6.83345902225579       -6.36876392814858       -6.95815278847538
C            7.43787430258788       -7.58544281707447       -7.09302090157068
C            7.10619394372297       -8.26545526176717       -8.28611815160929
C            6.23998090557005       -7.57620118985300       -9.08290175089400
C            5.75262414005558       -7.98918454764468      -10.37845704139641
O            5.06564870964677       -7.32951709473616      -11.11250509338129
S            5.79525271514209       -6.08423794801727       -8.31965997783621
C            8.95644933414539       -3.77833783671354       -3.53888965006460
C           10.07590373757875       -4.53728019544211       -4.08110379244025
C           11.09660401579982       -4.99357155530848       -3.24163409247908
C           12.12594265549517       -5.75920532398250       -3.72987557396319
C           12.19954947280951       -6.10346857460603       -5.08460182649622
C           13.27579932401319       -6.96771751988919       -5.53771094492315
C           13.42324728218218       -7.57423352931864       -6.74214647478767
C           12.51236523739806       -7.44160991811574       -7.79551603220596
C           11.66845884199097       -7.19442089679300       -8.64867725642628
C           10.64348549692333       -6.72645776183889       -9.46173227921527
C           10.27620423541535       -7.14818189141514      -10.70570059017627
C            9.21401787248038       -6.40697437665700      -11.26726689463376
C            8.75854615926831       -5.40973182464190      -10.45595227994800
C            7.70865517896664       -4.46595500572111      -10.76419798770207
O            7.37941090268315       -3.53481883144010      -10.07820561271272
S            9.62041330748143       -5.41775076114301       -8.95037463188565
C           14.53885646083569       -8.39468847268329       -6.95334103080822
C           15.50061394092014       -9.12904404504455       -7.14557263195569
C           16.57429430083039       -9.98290526754915       -7.37288191941617
C           17.88422945681314       -9.64433854188593       -7.55335969554370
C           18.74070840508870      -10.74791966678438       -7.76693200530725
C           18.09624086126295      -11.95017240180669       -7.75274540285469
C           18.69831668446863      -13.24982590608483       -7.94213948099046
O           18.11670281908149      -14.30213253324898       -7.92560707922881
S           16.40306630866993      -11.70824466733096       -7.46894780983095
C           11.20739499828523       -5.59556622540119       -5.92630459340190
C           10.17716668248853       -4.83660625237112       -5.44138305077304
S            4.61702427245555       -1.41998187403125       -0.55866977539216
H            2.83047022668692       -0.01491058598134        1.37581652304632
H            2.39667892207185        0.74204746293150       -2.37068119195650
H            4.00344324339815       -0.53499980844679       -3.98064951011408
H            8.13003833533654       -7.97427417319765       -6.36144326393820
H            7.51648518274877       -9.22652638807417       -8.55643797088236
H            6.03883625539001       -8.96937247383839      -10.73724166704223
H            9.16034235593690       -3.15769425813508       -2.68269850844943
H           11.05012914611087       -4.75980071862690       -2.19192165342746
H           12.88571453549600       -6.12123698414801       -3.05862401404488
H           14.04114328629340       -7.17206911274480       -4.80863606405689
H           10.77320177588803       -7.95812675226385      -11.21760991446408
H            8.81067638485806       -6.59595641192433      -12.25042015370161
H            7.16325613791542       -4.60110869623487      -11.68954615628195
H           18.22819197861886       -8.62116492088478       -7.53412521348416
H           19.80386389238338      -10.65278126362266       -7.92803648884094
H           19.76586884652212      -13.29327472437455       -8.11548153700771
H           11.24290921740076       -5.80099687785645       -6.97562161183967
H            9.43381083101968       -4.45552185582647       -6.11884608185159
