61
 energy: -13.606644215736 gnorm: 0.000945746153 xtb: 6.5.0 (97a52f5)
O            1.03133342789018       -0.22782298139554       -2.14793870362895
C            1.79006900189511       -0.32929684621687       -1.21993730896639
C            2.60673415489573       -1.48400850842257       -0.92799364351142
C            2.63154403340655       -2.63069540646870       -1.66164181029570
C            3.52128954789834       -3.60693767697585       -1.15955141520955
C            4.19197080552300       -3.22283090421753       -0.03371806556738
C            5.12768918551794       -3.95646438945676        0.68403853013008
C            5.96400020441507       -4.58789170333447        1.32116094288120
C            6.93083536720846       -5.28724131260806        2.04619434648066
C            7.03615207281323       -6.66378327673143        1.85395205400520
C            7.22374833557630       -7.87234719709758        1.76774379410374
C            7.58353393466771       -9.21137809609808        1.81596531603912
C            7.05266904276580      -10.25885031372618        1.12136422169100
C            7.65488142532868      -11.50146244793955        1.41403554328407
C            8.65529592091880      -11.41775924793347        2.33761305567241
C            9.45135999276732      -12.51349398778264        2.84007273941129
O           10.32284854799654      -12.42829668875529        3.66399284617917
S            8.85993102407884       -9.77373721728383        2.85245403116310
C            7.73512681875069       -4.60115111560435        2.90543513248867
C            8.78223198604796       -5.12165089893221        3.72018649294903
C            9.23628560027322       -6.41907997784873        3.84244317839509
C           10.30479041592612       -6.57595226063631        4.73001076573239
C           10.71756800398971       -5.40487108821790        5.33001059013397
C           11.79194366982069       -5.29849564140112        6.25734749037589
C           12.20960927951593       -4.15363301066615        6.86245998206850
C           11.60040853355674       -2.91756622741796        6.64300460229194
C           11.05442007657613       -1.83635423115322        6.45755224321981
C           10.40571644349080       -0.62970787424316        6.23555956801576
C            9.25758676157316       -0.43713606482149        5.52260368707663
C            8.82859238996874        0.90735801462184        5.47033191342127
C            9.64602637128648        1.76691188063210        6.14421214946506
C            9.47176273548607        3.19513834188789        6.27186476066148
O           10.20474015269662        3.94142431151932        6.86484285357359
S           10.96662489187360        0.89336082555828        6.85213769545876
C           13.29301670102302       -4.19993892320868        7.74223372297277
C           14.25009741079108       -4.22202064876481        8.50870892227515
C           15.33991869235008       -4.22959608027871        9.36954065896588
C           16.03985736727130       -3.14888610067665        9.82384688571032
C           17.10634863868336       -3.47464595466184       10.69117738601856
C           17.23895898620176       -4.81380865606872       10.91437049522656
C           18.23159953369943       -5.44990131921178       11.74884083037901
O           18.33731660407730       -6.63283300337431       11.93672273352999
S           16.02075451631773       -5.68137092930038       10.03648516828163
S            9.72048029869697       -4.09525557488421        4.76347019790103
S            3.70551579595982       -1.61658604484025        0.41203058020754
H            1.86070724560660        0.52146054241597       -0.55465729490508
H            2.02341513956015       -2.76678555933492       -2.54341777985008
H            3.66478242266364       -4.57239876340225       -1.62093328801634
H            6.24206515440352      -10.14054949053857        0.41823649124220
H            7.35505348253308      -12.43044348785663        0.95329093159627
H            9.25458499235170      -13.50357289609280        2.44880796523109
H            7.57120919846140       -3.53947238914181        2.97943720735395
H            8.81889274334019       -7.24797686262593        3.30021926583818
H           10.77416832573899       -7.52770197529668        4.92669232838888
H           12.32135503387432       -6.20550899765198        6.49326103810599
H            8.73196581291782       -1.24981041082256        5.04519603953128
H            7.93890201055434        1.22773748672155        4.94960597149231
H            8.60964736476671        3.64513290993530        5.79645477474020
H           15.79466406826665       -2.13669080781177        9.53916509983373
H           17.75705422728889       -2.73709344214143       11.13606083623481
H           18.94994808021121       -4.81704940095418       12.25416325244693
