51
 energy: -11.202177091769 gnorm: 0.000885996498 xtb: 6.5.0 (97a52f5)
O            1.42623393616093        0.57169307796434       -1.12325190329082
C            2.26542221982683        0.15974108690312       -0.36845915235116
C            3.02604693995750       -1.07235759463159       -0.54459661299405
C            3.97943825026604       -1.47666013983073        0.38625716293283
C            4.68304071119583       -2.64012356127690        0.20380330001314
C            4.46472124482674       -3.44888819548356       -0.91807042531938
C            5.21893337852986       -4.69501153875695       -1.11468123577868
C            5.78755171796352       -5.03472637563721       -2.36256960651516
C            5.81736737118195       -4.29417595962065       -3.56863385874895
C            6.54137080270142       -5.04986602966321       -4.48978951855987
C            6.97856814694887       -6.26165861857298       -3.86867205857095
O            7.70153515889534       -7.02112876337073       -4.75568895889226
C            7.74763548332292       -6.30883977736762       -5.94492202824905
C            8.36648704092550       -6.62370026073476       -7.15880069238791
C            8.27996192764529       -5.74025769806270       -8.20468850146008
C            7.58680581348921       -4.53373667144981       -8.08031523689242
C            6.96710153593800       -4.19511539726926       -6.90210933497794
C            7.04510943763469       -5.08167848800927       -5.83238083573794
N            6.50374110266994       -6.20211451638387       -2.58992668201035
B            6.76615120298532       -7.26784932957556       -1.52567954384181
F            6.16646611461836       -8.45148818149845       -1.91300852133242
F            8.13031626656828       -7.41370021157072       -1.35610753066976
N            6.14421138974185       -6.79810289248035       -0.21047856223815
C            5.42764882178314       -5.61766969880424       -0.06539783955205
C            4.96171534166333       -5.58309255619652        1.27095393424817
C            5.43023031034643       -6.73929607926356        1.89326560125332
C            5.45341926181322       -7.47317714068789        3.12548752610685
C            4.91550673615469       -7.23643944890245        4.38685509591054
C            5.13360686425142       -8.16369402944819        5.37652156901014
C            5.87830586379975       -9.31863992368682        5.12527650262138
C            6.41534188264938       -9.56540053274986        3.88732858915474
C            6.21187260365578       -8.64155382742700        2.85741127461397
O            6.64462003416560       -8.66379825591705        1.53975394047102
C            6.17882798525484       -7.51312606117703        0.95217664180941
C            3.50511962983004       -3.03094958351188       -1.84775630206516
C            2.80205189481472       -1.86784312431164       -1.66137057222578
H            2.46253158549367        0.76133298255954        0.50890857435794
H            4.16323611337952       -0.86343237994963        1.25183934393102
H            5.43987321605656       -2.92679926050497        0.91325950851231
H            5.40257736264396       -3.31775850252618       -3.73998232304612
H            8.90097081635591       -7.55239588122090       -7.24969044525080
H            8.75722926771853       -5.97952113462830       -9.14095550065333
H            7.53844369500545       -3.86038168085751       -8.92029443799407
H            6.43170181804967       -3.26827378932173       -6.79416634010799
H            4.33906558609403       -4.83188037795141        1.72122328111094
H            4.34456198733267       -6.34298007044701        4.56889347437555
H            4.72591172806026       -7.99856987044458        6.36028027544983
H            6.03365118915016      -10.02877985705416        5.92098435083923
H            6.98995023250920      -10.45274050134003        3.69014742733185
H            3.30043799257655       -3.65273084020681       -2.70199838106682
H            2.06063298539885       -1.55318253764137       -2.37637443127301
