39
 energy: -8.165927283217 gnorm: 0.000699339033 xtb: 6.5.0 (97a52f5)
O            2.86270153766416        0.39302878359413       -0.87818161863229
C            3.37591065553678        0.28965009929506        0.20348651548597
C            3.94716048595789       -0.93458237837710        0.75953790075556
C            4.50333834645230       -0.95671411191123        2.03481222058521
C            5.03272526596440       -2.11803165361405        2.54205161906763
C            5.03047829826114       -3.29741045888697        1.79575135384535
C            5.60445590123685       -4.50367078819977        2.35123189854606
C            5.63219400880056       -5.76406073303466        1.87372175397742
C            6.31094035665167       -6.78058302442158        2.72113097386806
C            6.45546990350655       -8.13849788112329        2.41498324892900
C            7.11260575157620       -8.96841972517391        3.30028237420337
C            7.63053491207489       -8.47472727049512        4.48649992291356
C            7.49519965900936       -7.13517660556648        4.80398208960140
C            6.84140518413372       -6.31281596227196        3.92379043696980
P            6.46819153159471       -4.56051227058873        3.92657743609724
O            5.56156744171865       -4.14013042472225        5.11113861865555
C            7.97518898808541       -3.59154713512222        3.85616645475599
C            8.82288528906923       -3.72280168928921        2.78242419828105
C            9.98419011648140       -2.97358632938063        2.73538583833994
C           10.28242162684946       -2.10286466700456        3.76506553470523
C            9.42488071374994       -1.97757937621717        4.84026325709834
C            8.26380373286698       -2.72808160811833        4.88434817246394
C            4.46941173626131       -3.26789458060600        0.51794191751413
C            3.93778357548208       -2.10526128226333        0.01258600780175
H            3.41245356267554        1.18377598747832        0.81056963624889
H            4.51219938233447       -0.05480046365216        2.62219243201591
H            5.44816775251026       -2.13605549527501        3.53430351202494
H            5.17827043751933       -6.03943251802379        0.93277019973687
H            6.05275910521225       -8.51962883331707        1.49321857793784
H            7.22445365168758      -10.01417755969094        3.06606197048184
H            8.14199363606152       -9.13665793449086        5.16564864794954
H            7.89173097557675       -6.73434087183793        5.72114368731282
H            8.57432194458139       -4.40870786848507        1.98824127437019
H           10.65431203005455       -3.07027329125233        1.89724306590547
H           11.18782698840676       -1.51960739158701        3.72956029773878
H            9.65842629520563       -1.29787197923354        5.64295734907975
H            7.57923626213114       -2.64595694443756        5.71396847977951
H            4.45791775517551       -4.16487332185755       -0.07539008095673
H            3.50542520188599       -2.08388044083776       -0.97311717544547
