58
 energy: -12.392632894676 gnorm: 0.000402984261 xtb: 6.5.0 (97a52f5)
O            0.82452757836726       -0.12388756635148        0.39663912542108
C            2.01777013887703        0.03642315117664        0.43733317164283
C            2.89429401444504       -0.36065137897851        1.52917873515753
C            4.27008852453460       -0.13874283766307        1.46790483393259
C            5.08505057235142       -0.51948405056198        2.50433444426396
C            4.55947305102489       -1.13798883770526        3.64000558553338
N            5.41456779210446       -1.54482512381850        4.71112328351048
C            6.59400910039909       -0.78529556973204        5.02081675032293
C            7.78001757778649       -1.42201968289352        5.37835449244597
C            8.90418685337453       -0.69023494894686        5.68875422570850
C            8.86569045801119        0.68998917101544        5.64785654487509
C            7.69729412088264        1.33640670929853        5.29432717695922
C            6.57187612910060        0.60689327449339        4.98356542945234
C            5.10692687483396       -2.71797215950568        5.48197861777783
C            5.40440250684047       -2.77537079276466        6.84127676779209
C            5.12505473321780       -3.90226605459612        7.57564393877643
C            4.52830431979080       -5.01127926655381        6.98075051164793
N            4.23678107140970       -6.19047606702488        7.74619984433384
C            3.85665030669386       -6.07940744484446        9.12549272835620
C            4.29385367705197       -7.01672006691659       10.05861323148944
C            3.94132761440637       -6.90611809109751       11.38471112333971
C            3.14420177204087       -5.85896266621667       11.80411797613126
C            2.69970562273734       -4.92275652902692       10.89086843361166
C            3.05130911957556       -5.03090070312935        9.56418332834923
C            4.32830613546294       -7.48444486496222        7.13180623888615
C            3.40856896824307       -8.48389138173717        7.44090891781842
C            3.49023803396280       -9.72274175692143        6.84615699131766
C            4.49205198363888       -9.98777256384397        5.93288587525938
C            5.41338566242230       -9.00821850860456        5.61720697157760
C            5.33346838713455       -7.76831821593266        6.21010324323832
C            4.22603863266196       -4.95180157168874        5.62255540337917
C            4.51595791250828       -3.82930029159293        4.88598498862341
C            3.18175131404943       -1.35404247058746        3.69818364013111
C            2.36628278517957       -0.97312127444452        2.66201371392873
H            2.47152130944539        0.51799041653510       -0.41779229310575
H            4.68812195696414        0.33244844461671        0.59498687766259
H            6.14718295289447       -0.35866242895323        2.44630138501138
H            7.80564617080341       -2.49736970519203        5.40274988792296
H            9.81545612486429       -1.19500385234295        5.96475500076960
H            9.74570880918355        1.26189164166052        5.89255806663575
H            7.66573819213232        2.41318544184548        5.26358574600949
H            5.65561867001432        1.10470503605998        4.71831920300858
H            5.85698743470175       -1.91960846962003        7.31055540547459
H            5.37325114079323       -3.94386391332073        8.62152207485888
H            4.92305705035596       -7.82428832346061        9.72780204161834
H            4.28970601610066       -7.63628017651366       12.09673036842208
H            2.86992766771815       -5.77249004013641       12.84268799806703
H            2.07735418132215       -4.10587011161962       11.21762927841497
H            2.70344667912881       -4.30743843037294        8.84784286285730
H            2.62457879143125       -8.26821308100924        8.14541004131167
H            2.77029344475716      -10.48609243592608        7.09200950667189
H            4.55460825160257      -10.95751659162132        5.46704315702789
H            6.19564496410078       -9.21454792096198        4.90520718906006
H            6.05232385221279       -7.00375760796700        5.97283710219053
H            3.75626019752023       -5.80017983999441        5.15694419799548
H            4.29604322356952       -3.79958563412996        3.83333813324071
H            2.76411647130657       -1.81433305252446        4.57623791369020
H            1.30420310196831       -1.14100893239764        2.71131257018388
