66
 energy: -14.707862410678 gnorm: 0.000747385105 xtb: 6.5.0 (97a52f5)
O            1.94638084212872       -0.61114625333233       -0.88138662533782
C            2.85501116920703        0.01793778800885       -0.40657905141281
C            3.41142199585515       -0.16521034847627        0.92903218835089
C            2.86605810646986       -1.14562933068370        1.77783852992126
C            3.35198536204230       -1.35498747689906        3.04143798772887
C            4.41757402035458       -0.57255295504898        3.48858395312653
C            4.96847069125627        0.41574216734012        2.65286362316296
C            4.46676122256922        0.61791220699152        1.37099503049639
C            6.02596458249327        1.06159570291792        3.39407261983673
C            6.91612258370749        2.08357153831282        3.06416918491183
C            7.84310536758586        2.47650739825412        3.99916406248310
C            7.89977891873797        1.86740233182514        5.25526402214501
C            7.02954803828123        0.86038531331996        5.59385381096212
C            6.07937190047237        0.45304674921548        4.65894607991891
N            5.09064907057604       -0.55246292693669        4.72370921609351
C            4.80891601638034       -1.39130259029742        5.85637574253703
C            4.78825328937613       -2.77521811881935        5.72169547425555
C            4.52432642911968       -3.57999142269188        6.80311965157929
C            4.26282331722457       -3.03022114279299        8.05907510436576
C            3.98079917829460       -3.90173463335720        9.22048063309737
C            2.93278564749246       -3.61755331213491       10.09759638509708
C            2.65936081250051       -4.44452102399416       11.16053994596080
C            3.42865515538344       -5.58000108213688       11.39161258090842
N            3.13058099464291       -6.45891891942810       12.48930237122580
C            4.04022766627442       -6.88854868396855       13.47951531123598
C            5.37568857894549       -6.55459316649678       13.69777994188851
C            6.03159386645739       -7.11910472728483       14.76411008910510
C            5.38052738484238       -8.01089579421495       15.62018642830502
C            4.06320833945454       -8.34750153159363       15.42168278886596
C            3.38377308839557       -7.78045485704739       14.34349983247833
C            2.02738681142868       -7.91658583892028       13.86737204524841
C            0.95365230728902       -8.68276518006536       14.30985655514606
C           -0.24389280767005       -8.63059277645747       13.61305712665115
C           -1.39084515935038       -9.42290712371165       14.04167118745930
O           -2.46746922281483       -9.44762207987103       13.50589500838957
C           -0.35481991483806       -7.81062326764472       12.47527638614862
C            0.69450853613269       -7.05042110442088       12.03061750764860
C            1.89967536624426       -7.09484434872563       12.73281366385069
C            4.48181962580298       -5.86187896136347       10.52833699632597
C            4.75045708816193       -5.04106388746795        9.46021823024522
C            4.27849735920679       -1.64037828836091        8.18654405353877
C            4.55109509503067       -0.83672887372171        7.10564830171741
H            3.29051410626444        0.78486027862917       -1.03224834759464
H            2.04472437134365       -1.73555484547906        1.40915448363485
H            2.92567158616268       -2.09876385795178        3.69002255219899
H            4.89216449862884        1.37372741380357        0.73705084228418
H            6.86946659415972        2.54374738965477        2.09314802456711
H            8.53889550827219        3.26367789015608        3.75990578929847
H            8.64022690549413        2.19185168982015        5.96768518905747
H            7.07378032252995        0.37994995293409        6.55464707060645
H            4.99446816230684       -3.20585311701365        4.75758501655790
H            4.50421984767457       -4.64962716429413        6.68666624814406
H            2.32522248465396       -2.74701962757824        9.92140128229777
H            1.84981471081084       -4.22131500285239       11.83312414962343
H            5.86739199053912       -5.86141398484507       13.03923239841199
H            7.06407161425780       -6.86965755478400       14.94527772495203
H            5.91959586310424       -8.43918660103319       16.44902410493128
H            3.55429477821022       -9.03137884992452       16.07752087462843
H            1.05780459068898       -9.31003508211770       15.17576208016584
H           -1.27191461795983      -10.04746090253961       14.91639272691548
H           -1.29471392621912       -7.79525384402467       11.95099613531484
H            0.60885381128776       -6.43298300432775       11.15473483573609
H            5.07322770138478       -6.74359370266896       10.70237161122210
H            5.56904223189898       -5.26700284411385        8.79922830556777
H            4.08737035284241       -1.20164416633881        9.15038250401655
H            4.55881779052094        0.23412036906588        7.20910042180736
