28
 energy: -6.217358018007 gnorm: 0.000668575248 xtb: 6.5.0 (97a52f5)
O            1.24304162502150        0.48138479006953       -0.48703189163329
C            2.24207390920181       -0.01301555017665       -0.03402248053732
C            2.96473208445535       -1.14054546912844       -0.61420263154547
C            2.49708111616167       -1.66016821156407       -1.81570851466554
C            3.11708863816965       -2.71348610468618       -2.44105252368343
C            4.25095263012771       -3.30449059367822       -1.88239519292737
C            4.91935887299433       -4.39916246997181       -2.51157475873855
C            6.01598740050081       -4.96247013745422       -1.95925529039994
C            6.54785658309506       -4.48347153572469       -0.72230021841359
C            7.67793480872344       -5.04928695687121       -0.13082691836347
C            8.16613380913278       -4.56516422175861        1.06443830786840
C            7.54767620673702       -3.51025688828522        1.70135265014008
C            6.41513776372298       -2.90926013066594        1.15048370364725
C            5.74873767674942       -1.81544521849297        1.78071009623726
C            4.65347772621441       -1.24855444422384        1.22877186061654
C            4.10864913305881       -1.71309962117694       -0.00993932476887
C            4.74966025623052       -2.80106521633147       -0.65674127698092
C            5.90650718235851       -3.39921640878227       -0.07510354561511
H            2.61627038874664        0.43344491717440        0.87420862592643
H            1.62370106219533       -1.21039124294127       -2.25628743131205
H            2.73285489821944       -3.09305697112851       -3.37192796888479
H            4.53108020476431       -4.77157885188281       -3.44355686402821
H            6.50740274149527       -5.78589522583387       -2.44749058094011
H            8.16771890558568       -5.87294703717011       -0.62062471079900
H            9.03997417865157       -5.01611081907083        1.50523304659176
H            7.93575744880514       -3.13908424739025        2.63401439198342
H            6.13748734119755       -1.44656338882558        2.71397970918294
H            4.17833540768319       -0.42993274402798        1.73713973204303
