34
 energy: -7.490658703227 gnorm: 0.000759294818 xtb: 6.5.0 (97a52f5)
O            1.46225780088980       -0.14829287147011        0.91387935274484
C            2.17169292485025        0.09502846029121       -0.02459635142238
C            2.91276425691797        1.33759002397645       -0.22666691269090
C            2.86072504744472        2.35995367901165        0.69284022216894
N            3.50642950833331        3.48966320814441        0.54877493473515
C            4.24376471636361        3.60714529908244       -0.56430378107426
C            4.98465403938602        4.87021384906135       -0.75228931315223
C            5.11218276320525        5.44788491253481       -2.04479303351380
C            4.52502735913439        4.86799403816008       -3.19501131361172
C            4.62249743181890        5.44938269483665       -4.41936545522521
C            5.32249154153366        6.65384117200063       -4.57850348767083
C            5.90774948635125        7.25029160297357       -3.50879470503581
C            5.81966439213169        6.67421525849242       -2.21358656999188
C            6.40486209328305        7.29093955523928       -1.11226774276058
C            6.30575626324354        6.74227453314873        0.16242356971867
C            6.92290748001356        7.36652432362124        1.27893765638205
C            6.83692560824630        6.82068802763941        2.51874687184430
C            6.12810223177533        5.62707623553417        2.71670114194501
C            5.52039047278026        5.00761231875622        1.67100072091959
C            5.58153138550765        5.52955252809743        0.35647305716971
N            4.36560886577296        2.67661853458786       -1.52152866689755
C            3.69954999764097        1.56496651414684       -1.33522504111527
H            2.26107818638218       -0.67436234615551       -0.77879406831466
H            2.25686183338059        2.23387632353935        1.57806076357127
H            3.99898196378554        3.93854446299189       -3.09044470453826
H            4.16567490453140        4.98240552181409       -5.27640079241151
H            5.39478303023663        7.10358543053927       -5.55509919902498
H            6.44398997377767        8.17542180361747       -3.63036973111606
H            6.94481996441856        8.21004452159194       -1.24904529911459
H            7.46787102146159        8.28197123876023        1.12649261320902
H            7.31257060489061        7.30359104054476        3.35648284200308
H            6.06265262931020        5.20514321643333        3.70612334000568
H            4.96818683622131        4.10307479908685        1.83956728339271
H            3.78107338497924        0.80197008936947       -2.09335820112800
