82
 energy: -18.666534377041 gnorm: 0.000961383671 xtb: 6.5.0 (97a52f5)
O            1.01702784845377        0.40621098648775       -0.00188558327853
C            2.09072120839808        0.00315743596514        0.36443839434672
C            2.88134323469422       -1.00353547021958       -0.29648901345695
N            2.51119488191015       -1.61376003201930       -1.38064192793291
C            3.46054782712983       -2.52655365781203       -1.80303294545896
C            3.36230358524666       -3.34079283065245       -2.94078774161152
C            4.38382482519495       -4.20041133961240       -3.24725177221344
C            5.53443572321014       -4.28901875692946       -2.44456071782707
C            6.57446856298084       -5.17678827994973       -2.77925224069316
C            7.48740367478258       -5.94063000573907       -3.05399362749935
C            8.55153393649792       -6.80919105498443       -3.35952683016170
C            9.36163205340832       -6.58073180289648       -4.46841356751254
C           10.40594403190658       -7.42392799585246       -4.76265940619110
C           10.67873555638416       -8.52753299872375       -3.95786033822319
N           11.77002323132696       -9.40602245313625       -4.26090253473214
C           12.99126684923628       -8.87384338191947       -4.78780085612238
C           13.45936669072553       -7.62829068159816       -4.37642317848757
C           14.61488820005593       -7.10278741021672       -4.90162618717912
C           15.34649626383486       -7.80314824283426       -5.85648143373927
C           16.51866260245626       -7.24970764153730       -6.40415281245904
C           17.52186463438267       -6.74007854715756       -6.87979811957847
C           18.66403409590073       -6.12575246106994       -7.42733651101410
C           18.80158632784726       -4.72719479970495       -7.39005491261650
C           19.90087216546629       -4.10180363030960       -7.91570767850695
C           20.91605667223238       -4.86816150417185       -8.50632140440875
N           22.07732586739902       -4.36995066773504       -9.06845816825127
C           22.83000663827066       -5.31905610732260       -9.53474299158515
C           24.10042986298248       -5.08843445764347      -10.17375085025490
O           24.61159453146077       -4.01335029905517      -10.35345757880133
S           22.16951835034089       -6.94158768805245       -9.32444474799022
C           20.77922944381657       -6.26108247736816       -8.54506752444394
C           19.66387537533899       -6.88516714811610       -8.00975831329586
C           14.88416423757126       -9.05234390495233       -6.26140270737883
C           13.72849847925116       -9.57905517451068       -5.73606736003111
C           11.63290310099166      -10.81406283453259       -4.03222893429054
C           10.41910514845232      -11.45481943375624       -4.26816038437945
C           10.27560180728935      -12.79908408167549       -4.02488161427214
C           11.33948414797724      -13.55274329253728       -3.53746184290323
C           11.17687096270743      -14.92616898666940       -3.27779154131284
C           10.99360613423209      -16.11126825069633       -3.04479936890792
C           10.73916350929834      -17.46906352983577       -2.77360858578432
C           11.48410699416431      -18.47885956828096       -3.40693107146101
C           11.24094264344920      -19.80513768715909       -3.16521853229360
C           10.22779497648142      -20.17114829018240       -2.26690993566897
N            9.86862214736637      -21.46642011095335       -1.94059934300942
C            8.89111586541203      -21.49301521381834       -1.08692710067526
C            8.31004212035209      -22.70795427570670       -0.57507752140386
O            8.64780082691201      -23.82598141892125       -0.86711407362319
S            8.31525347667612      -19.90112504433836       -0.59025123041883
C            9.48796258187277      -19.16572466010799       -1.63318700126909
C            9.74082308507996      -17.82694076767004       -1.88429228436964
C           12.55519775790258      -12.91423645019026       -3.30784081662704
C           12.70024230302448      -11.56942923078099       -3.55214837047623
C            9.86550279002617       -8.75795834582888       -2.85081845940870
C            8.82190629868917       -7.91392403943551       -2.55701686473689
C            5.63376841972267       -3.48822533172352       -1.32010008296407
C            4.60612253447324       -2.61476893758958       -1.00319307955520
S            4.45621179898455       -1.50566870105083        0.32027299280231
H            2.49057429971009        0.44398987144912        1.26816719969841
H            2.48455389851288       -3.27445226121062       -3.55846211697400
H            4.31776563650889       -4.82514362291336       -4.12144072370521
H            9.15714253219116       -5.73021480382510       -5.09600162650436
H           11.01995211093308       -7.24791790346795       -5.62830190099305
H           12.90462145851905       -7.08429152653465       -3.63236162976116
H           14.96691388570801       -6.13736450444561       -4.58056054213080
H           18.01788009685764       -4.14591070277948       -6.93514879889477
H           20.00251436060891       -3.03168261118137       -7.88449759230790
H           24.64942388511766       -5.95195029369208      -10.52566594377707
H           19.57824340860196       -7.95609961364220       -8.04883755150609
H           15.44333960769636       -9.60022654195552       -7.00036355280595
H           13.36801030209570      -10.53716151432394       -6.06666500464598
H            9.59488252706439      -10.88071226114801       -4.65339410568552
H            9.33287568071625      -13.28587620178267       -4.20764213635369
H           12.25812385594686      -18.18991987270743       -4.09706842641423
H           11.81073997163652      -20.57487500799408       -3.65434651257241
H            7.49791980489782      -22.61583363542989        0.13404250807089
H            9.15884450996516      -17.07012495343827       -1.38990506029399
H           13.38264929111076      -13.48973745885067       -2.92960568852764
H           13.63751415215625      -11.07880171298163       -3.35689760725096
H           10.07564677061820       -9.60303451304194       -2.21917273689066
H            8.20122709196214       -8.09636361216847       -1.69649885053572
H            6.50496195938992       -3.54111177683575       -0.69240336346534
