71
 energy: -15.416183176084 gnorm: 0.000326041321 xtb: 6.5.0 (97a52f5)
O            2.64323448832176       -1.33270008519855       -0.28009984198935
P            3.20893015180258       -0.06783550803912        0.42303616474768
C            2.45905162424116        1.33416351984336       -0.46188670643225
C            3.13116204871231        2.39378501807999       -1.08243272145835
C            4.54749247883746        2.48028487363338       -1.20021530204409
C            5.15309139721140        3.53771642482540       -1.79431886116111
C            4.39129486094349        4.59249738547029       -2.32632473933852
C            3.03806812765296        4.55562381713564       -2.26146073348551
C            2.36465242563882        3.46097216203772       -1.65179928009991
C            0.97544969709264        3.41785483653957       -1.60304573338418
C            0.30656366736953        2.34850188747108       -1.02050777224822
C           -1.11345338407428        2.30501576450862       -0.95522341805885
C           -1.75200325209470        1.26475678372596       -0.36406327418829
C           -1.01828212736618        0.20028941719677        0.19066786022078
C            0.33629593680485        0.20047999174834        0.14541025253543
C            1.06390942876852        1.27495987565407       -0.45099103739409
C            2.71642444193521       -0.18751099502327        2.17631387500109
C            3.10281090873492       -1.39790040102569        2.75147677109015
C            3.83438119489657       -2.39742623030278        2.04219510102147
C            4.21473470858007       -3.55445434161595        2.63677548330820
C            3.88669669750961       -3.80858386200608        3.98084837170811
C            3.18703014419354       -2.89695222600535        4.70109492676758
C            2.77606740473962       -1.66584067258415        4.11935070317010
C            2.07477440046493       -0.71457087949074        4.85015016483641
C            1.70418102540189        0.50146665782383        4.28630247644474
C            1.01055004280454        1.47865799441309        5.05255594130778
C            0.68428943030728        2.68062442888341        4.51834083558679
C            1.03402829053537        2.98246437599937        3.19091797678213
C            1.68672599854904        2.07398709218736        2.42538171211420
C            2.03958512646336        0.78572143388440        2.92409534300305
C            5.02972448414258       -0.07991833865387        0.36706544133417
C            5.71311642320558       -0.89191112411745       -0.54276916934741
C            5.06682914377706       -1.69932388036173       -1.52296988822152
C            5.76820752777917       -2.47483891225810       -2.38619999212535
C            7.17303868441647       -2.50715448431613       -2.33848313322164
C            7.84282763138540       -1.75269171627021       -1.43318652883324
C            7.14449924289891       -0.91845703137000       -0.51685556557556
C            7.83094965223774       -0.12540811685989        0.39521174977061
C            7.15514221545488        0.71437987246162        1.27197465392640
C            7.85806365614367        1.55936964850171        2.17481490163503
C            7.19197920409385        2.41062448484487        2.99336711305785
C            5.78755506292701        2.47488554841872        2.95830013563471
C            5.08299690834627        1.67589405325414        2.12061583628917
C            5.72496991499365        0.74714374197281        1.25319048434851
H            5.15135016378231        1.67890942335454       -0.82942901641445
H            6.22801818434677        3.57219467156140       -1.86564762295237
H            4.88879195597636        5.42718216192251       -2.79238627764393
H            2.45283085256887        5.35850279781482       -2.67568743559539
H            0.40747012680036        4.22581505069558       -2.02733861771061
H           -1.67694268423977        3.11837518422555       -1.37888040011506
H           -2.82859895603421        1.24731340325912       -0.31908263118121
H           -1.54174793639960       -0.62225187343563        0.64993720364860
H            0.87949609518309       -0.62967702627534        0.55702760657863
H            4.08437375915783       -2.22638389365683        1.01229274778774
H            4.76944320615035       -4.29024963416941        2.07770883836195
H            4.19542709127904       -4.73513146496793        4.43656443659834
H            2.93769656822390       -3.09260884640804        5.72971779791789
H            1.82753599142172       -0.91665920923034        5.87653262135054
H            0.75233262264601        1.25016189453907        6.07225540901572
H            0.16156474858277        3.41306723862486        5.11137094043957
H            0.77952418019855        3.94687396456667        2.78251714986152
H            1.95734371930023        2.34089936128465        1.42327279707645
H            3.99601290622390       -1.68765093226051       -1.57770483766935
H            5.24904890232313       -3.07569017123871       -3.11495962200913
H            7.71509020841826       -3.13352195822529       -3.02788150507265
H            8.91851271934349       -1.77320587635613       -1.39907832841754
H            8.90558217197422       -0.14720612247505        0.40910738571543
H            8.93353458381667        1.51847279467209        2.19242620655639
H            7.73715187792457        3.04885360831425        3.66924934681268
H            5.27156606795045        3.16781233588791        3.60257915185831
H            4.01596373606472        1.75740083360646        2.08693607897439
