98
 energy: -21.303632238005 gnorm: 0.000526086414 xtb: 6.5.0 (97a52f5)
O            2.74152076635475       -1.70851472943080        1.62454104404594
P            3.33225892611267       -0.57894238943461        0.74049516895801
C            3.08858027863631       -0.96764857353115       -0.99420300083787
C            2.52885841523808       -0.04724419675144       -1.85096937660757
C            2.37421259812331       -0.36024133454601       -3.18428426798665
C            2.78499768243037       -1.60243868901543       -3.67140267094711
N            2.63128607350919       -1.93069151555634       -5.06792998059210
C            3.36551575222038       -1.22704711181726       -6.06620305401374
C            4.26649686111520       -0.23042338038114       -5.72929511900962
C            4.97977698175487        0.44463668729211       -6.70174704559846
C            4.80185815184682        0.12633704070955       -8.02923625784691
C            3.91667612041906       -0.87157423605105       -8.38597544663950
C            3.19299861409124       -1.56436888469206       -7.42382747477716
O            2.32496795620733       -2.57855132766266       -7.83147281643044
C            1.60686510054099       -3.26314238891610       -6.84976193153768
C            0.72974112115450       -4.26846493139394       -7.23628777569613
C           -0.01595564003309       -4.96067422422345       -6.30279730960404
C            0.10166511253256       -4.65443266708136       -4.96575235383296
C            0.97107562412833       -3.65947493580911       -4.56031187207975
C            1.73657749998001       -2.96078144379417       -5.47914278467272
C            3.35040818005416       -2.51902328221472       -2.78279563480977
C            3.49996975521327       -2.19836405010695       -1.44928732227637
C            2.53639790923324        0.98358569176124        1.11923600992923
C            3.12669841148861        2.16664175341805        0.73656557508023
C            2.48892104942090        3.36179071944817        0.99125676114720
C            1.25062247809137        3.37928952897747        1.63536992510202
N            0.57225858682472        4.62857504218722        1.88500687222720
C            0.03749675237348        5.39033342575218        0.80641050543177
C            0.12035955763687        4.94130369572136       -0.50116337132647
C           -0.40871390299507        5.67939660330157       -1.54293404636078
C           -1.03249380443547        6.87968316462619       -1.28649648304690
C           -1.13219031237334        7.34158187473479        0.01110218400728
C           -0.60937671034688        6.61387991775972        1.07241617389772
O           -0.74666566398708        7.11319596211148        2.36870195019340
C           -0.22611155921764        6.35943663894215        3.42210417233589
C           -0.35083014011382        6.83974721422835        4.71939640882209
C            0.16075073502192        6.13547323078951        5.79140870386217
C            0.80808679612971        4.93860056497614        5.58160562001019
C            0.94080939225532        4.44213085186870        4.29859432570530
C            0.42844217081223        5.12922032445843        3.21082116265300
C            0.67464653570011        2.16650788323956        2.01860253001744
C            1.31800064436564        0.97478117203330        1.75603244788675
C            5.08970809000473       -0.41432338341201        1.04823104303060
C            5.58364274551119       -0.76721277749710        2.27982758965469
C            6.93100989930420       -0.62762248600864        2.54245426880177
C            7.80971304221950       -0.13644267904901        1.57306506484006
N            9.20361818588216        0.03543655188267        1.85858186430303
C           10.02726127683017        0.87593107362899        1.03904308735509
C           10.22117929365552        0.65335263264194       -0.31436696815719
C           10.95973809541645        1.54136168392688       -1.07424436806740
C           11.52320989371746        2.65251948920869       -0.48534119027504
C           11.38037211478321        2.86595003093181        0.87212332016311
C           10.66065829679386        1.97633702483320        1.65730321015731
O           10.59910843901354        2.13963846724036        3.04796952876680
C           10.34087241709142        0.98133227914413        3.79363992811566
C           10.74503868216273        0.88599120926752        5.11778879877615
C           10.56524756491292       -0.28576162896640        5.82749279202666
C            9.98773092435652       -1.38069079817502        5.22180509569205
C            9.56123468089874       -1.30170492366625        3.90913819946400
C            9.69813606703357       -0.12343165294337        3.19420296318493
C            7.26812313362863        0.23677187336514        0.34007678842397
C            5.92177657203575        0.09237065520493        0.07829125534522
H            2.21588734913997        0.91208463240602       -1.47310728506957
H            1.93182435048650        0.34526868561365       -3.86527819606747
H            4.41299196206033        0.01296491450495       -4.69257537651105
H            5.67424617275666        1.21909044419645       -6.42046894250225
H            5.35473292670978        0.65309999996367       -8.78956410312455
H            3.77467179073811       -1.13340738023539       -9.41938984939342
H            0.64049452533555       -4.49382884733893       -8.28412422207522
H           -0.69177076894267       -5.73716489010212       -6.62152875094571
H           -0.48351672242533       -5.18898445488346       -4.23568888469454
H            1.05479150089568       -3.41498474478511       -3.51681765890209
H            3.67509773186467       -3.47405818975011       -3.15646869952990
H            3.93731812250275       -2.90025220765987       -0.75627223558045
H            4.08252371347987        2.14915666686261        0.23841246268309
H            2.93710192494801        4.29543122732414        0.70032764924068
H            0.60071229705700        4.00038477429476       -0.70054763960311
H           -0.33325732126867        5.31490486338575       -2.55419804371056
H           -1.44546046813471        7.45752784636009       -2.09690760720584
H           -1.62245778439766        8.27495597067612        0.22363035670946
H           -0.85362476913460        7.77837338674918        4.87070482195621
H            0.05573403324131        6.52467480190726        6.79078246872802
H            1.21195740456688        4.38950759816130        6.41621547423526
H            1.45261165765076        3.51110411049210        4.13412206782046
H           -0.28203392150979        2.17748870244127        2.51008670254563
H            0.87883857850933        0.03153553026860        2.04062684687285
H            4.90785839714225       -1.14992797605733        3.02882957028242
H            7.30232686943940       -0.87316552079610        3.51931321740139
H            9.80419652726365       -0.22999550746149       -0.76554456767766
H           11.09283784637226        1.36459340226953       -2.12885102683544
H           12.09243377950682        3.34707666278847       -1.08093355291709
H           11.84643550599159        3.71048452968506        1.34761172036207
H           11.22253924774631        1.73586606318101        5.57199766632482
H           10.89161742165122       -0.34765130069516        6.85260246933724
H            9.86558748965393       -2.29911367867942        5.77200642832717
H            9.12511282972189       -2.15889492327565        3.42649328741239
H            7.90166589375545        0.67061540617516       -0.40949414785357
H            5.51323363291517        0.37525206492124       -0.87887483585949
