77
 energy: -16.569758030023 gnorm: 0.000331365002 xtb: 6.5.0 (97a52f5)
O            2.20680839192421        1.39065608644966       -1.39438388892369
P            2.69648013055102        0.21338350863428       -0.51047048965646
C            1.59804553143130       -0.00367843737266        0.89111985990507
C            2.05249923373889       -0.61149721210774        2.03741063597665
C            1.18532797097743       -0.80365676368866        3.09733518446772
C           -0.12744971735647       -0.38584536014087        2.99630284685407
C           -0.57585476148486        0.22245111648602        1.83996596779057
C            0.29384741926188        0.41160082063964        0.78047893338563
C            2.72855359573495       -1.30072745390813       -1.47321956199750
C            2.24508465376729       -2.47694434434341       -0.95097926470027
C            2.29374016418280       -3.63136549624648       -1.70309251644824
C            2.82285952949520       -3.63069774088526       -2.99643122392911
N            2.89322528863130       -4.83795851856134       -3.76578036669524
C            3.76476937111319       -4.94377344787971       -4.89966203370706
C            3.66575773549985       -4.11741658273714       -6.00698135429708
C            4.58342752021954       -4.20910888418304       -7.03701570494395
C            5.60045624468606       -5.13696781444349       -6.97588043682830
C            5.68684437406702       -6.00197037725418       -5.90212300253819
C            4.76359163902224       -5.94167104784913       -4.86774582398262
O            4.79166473889397       -6.88329475114307       -3.83000828594447
C            3.58084606316032       -7.09390514511376       -3.15637733643842
C            3.33321913871791       -8.29230686008360       -2.50181231362682
C            2.10814728621999       -8.53294036454428       -1.90999599593129
C            1.11118160066351       -7.58351739906959       -1.97111548376736
C            1.34303843310498       -6.37506318389811       -2.60125465088231
C            2.57705074296800       -6.10133323382423       -3.16745704328534
C            3.33301905441443       -2.42475800283710       -3.48431499576943
C            3.28022321199703       -1.26978611429816       -2.73062278240656
C            4.34502396531871        0.55432470298089        0.10447770624296
C            5.23835896920262       -0.47095209834578        0.31685090694352
C            6.49191963466438       -0.19024174662485        0.81798329462251
C            6.85816595710629        1.12451830618020        1.11375298231893
N            8.16420975357450        1.42339397658550        1.64967356879937
C            9.09910516798295        2.19676798101321        0.90230687073677
C            8.80824148593217        2.63851266158873       -0.37777763530688
C            9.72046287723647        3.38540747958616       -1.09906240820035
C           10.94256680737269        3.69681849737165       -0.54704445872681
C           11.25653045676425        3.25763922610767        0.72382787391160
C           10.35463129647673        2.50432549376787        1.46443951299850
O           10.72319567482156        2.07067918850731        2.73885097939272
C            9.79904574727700        1.32414578442482        3.47140413313071
C           10.13835003880031        0.90313803010068        4.75086271242675
C            9.24992191227504        0.17921874332731        5.52104438832331
C            8.00486478619602       -0.13270243681612        5.02318192759410
C            7.64920004495378        0.27419655689236        3.75115473755031
C            8.52877184292860        0.99259020875094        2.95830357468064
C            5.93276887056009        2.14581560834477        0.89055089450574
C            4.68075491648658        1.85682867530768        0.38869557140430
H            3.07950189709556       -0.93409544946738        2.09933364175736
H            1.53367819920367       -1.27971401891599        3.99900961016772
H           -0.80400945918312       -0.53524374935305        3.82174814843285
H           -1.60001149525625        0.54790373373567        1.76177041366612
H           -0.03538487824646        0.88329618102886       -0.13228791090206
H            1.83404265719606       -2.48758720072568        0.04525014334621
H            1.94446219387658       -4.55168040330592       -1.27453454724681
H            2.85355824037759       -3.41413199295398       -6.06548829588977
H            4.50380847726818       -3.55230606744985       -7.88755689359568
H            6.31924268984264       -5.20152554541731       -7.77610839831845
H            6.45470964358899       -6.75391304020027       -5.86267993481346
H            4.10713694088116       -9.03883937878594       -2.48562575373138
H            1.92729606043883       -9.47188348887864       -1.41313339006227
H            0.15032380913016       -7.78151984811732       -1.52537749862695
H            0.56316960594159       -5.63643783526818       -2.66432424009114
H            3.79970802450449       -2.39681124058309       -4.45015678956697
H            3.66951664677692       -0.33934108568719       -3.11399131705201
H            4.95046129111799       -1.48454614184212        0.08841718456760
H            7.20473575385865       -0.97874338508693        0.98336046872800
H            7.85771288339140        2.38841032247136       -0.81325304888733
H            9.47478569080920        3.72312795568592       -2.09244307762312
H           11.65504529617565        4.28033281135686       -1.10657120285754
H           12.21031628000732        3.49003174399724        1.16313707845638
H           11.11094444823057        1.15914804562700        5.13195050465164
H            9.53009949430660       -0.13735624650283        6.51226837669915
H            7.30762866566509       -0.69276991922297        5.62431764086993
H            6.67338345643028        0.03800107394771        3.36708713266445
H            6.20839076674461        3.15857504226254        1.12624350835355
H            3.95804192811145        2.63892729281120        0.21545244182849
