65
 energy: -13.899075250915 gnorm: 0.000756085111 xtb: 6.5.0 (97a52f5)
O            2.75356937767524       -0.56590270860895       -1.12924809155495
P            2.97767904838999       -0.01280916427731        0.30364293455988
C            2.18323814763256        1.58631016573703        0.48301842393815
C            1.84260372396971        2.04826870045608        1.73248826832489
C            1.26192871437273        3.29675297009695        1.86332570737910
C            1.03295511380178        4.06987086987144        0.74111431637833
C            1.38250894847838        3.59936943970171       -0.51013377708258
C            1.96373462147662        2.34989882154935       -0.63767510728685
C            2.27823555588904       -1.13535344615819        1.51609569333968
C            2.82793839404301       -1.23107795092121        2.77289211343254
C            2.25867725095278       -2.08173820062246        3.70318102898666
C            1.14332270061129       -2.82372403352931        3.36547947885748
C            0.59519140222952       -2.71741585156119        2.10184112032222
C            1.16665283250495       -1.86551379070239        1.17285082437352
C            4.73568645617058        0.16673705356762        0.61522251700045
C            5.51667822024408       -0.96318974245074        0.63681314112591
C            6.87230721949243       -0.85392233724956        0.87814240183941
C            7.45975889060671        0.39351456810916        1.09541559772305
C            8.91179675227323        0.51441447835304        1.35111371649666
C            9.82855574547362       -0.32836962339445        0.68414800782862
C           11.17962352948985       -0.24340770556311        0.89800348694009
C           11.66150815448311        0.70931246864639        1.79611589454802
C           10.76479820766349        1.55394183503793        2.47323036902655
C            9.39391681258030        1.45595738301047        2.25040070295069
C           11.54853813374165        2.40994767155625        3.33246537636656
C           11.19618581948579        3.43297077858161        4.21390987202569
C           12.19360520435201        4.08861278145133        4.89484769188665
C           13.53572382476723        3.74505978245088        4.70999652976202
C           13.89720845566866        2.74089397363699        3.84558284654847
C           12.89754201817964        2.05959583051625        3.15154502834197
N           12.97371575487614        1.01181421263437        2.20859052288219
C           14.17579224400691        0.36616693043169        1.75361728230792
C           14.41679282879938        0.19521214472341        0.39505624705318
C           15.56309961804865       -0.43279707499576       -0.03944342063471
C           16.48659010534579       -0.89765693471816        0.87629773470795
C           16.25976929872575       -0.73312599651438        2.22869451202571
C           15.11332215450116       -0.10657207002082        2.66495618867147
C            6.64204458720387        1.52427182412021        1.06419319011079
C            5.28735895692041        1.40812735491082        0.82605645768266
H            2.03153552106893        1.43396016484349        2.59843657515492
H            0.99137961685168        3.66521720968611        2.83933067232954
H            0.58188070692017        5.04339986200906        0.84247170130065
H            1.20450597398369        4.20334192753548       -1.38506480841201
H            2.24684807873935        1.96486278926125       -1.60491216242706
H            3.69770523967159       -0.64404793732200        3.02165001184575
H            2.68515032411204       -2.16461601284151        4.68934452560691
H            0.69941453460182       -3.48673254954459        4.08990706413417
H           -0.27605107456644       -3.29450576687602        1.83900745595905
H            0.75410441714714       -1.76660192894601        0.18084573946062
H            5.06080428042292       -1.92633846887785        0.46712289933410
H            7.48370379575942       -1.73852883805078        0.91520254744856
H            9.44883137703936       -1.04591097122094       -0.02216892967860
H           11.86758457157350       -0.89469170661113        0.39000810422011
H            8.71813957763567        2.09566463171992        2.78672675254780
H           10.16156080442757        3.69557836352080        4.34660433932037
H           11.93917693265218        4.88154710587439        5.57873504712290
H           14.29830070441907        4.27904510947743        5.25280135049520
H           14.92858901195867        2.48023075285445        3.69033470037887
H           13.69876791584288        0.57114706053600       -0.31258731353356
H           15.73976902463563       -0.56025029553495       -1.09495758615146
H           17.38355552660980       -1.38855435007153        0.53577446511430
H           16.97881985934688       -1.09824411925516        2.94369834359887
H           14.92226834225200        0.01154612090540        3.71718076893054
H            7.07992293710458        2.49578193106969        1.21350428916255
H            4.65726717477957        2.28225450808742        0.80118861751295
