65
 energy: -11.997353806602 gnorm: 0.002358100918 xtb: 6.5.0 (97a52f5)
O            2.50686851352920       -1.24218766556229       -0.27121308203376
P            3.23783636214507        0.12036984969350       -0.40480906162618
C            2.53042659306240        1.06097707844984       -1.75937877318139
C            3.32130943197929        1.86102429145728       -2.55000953939427
C            2.74481240549503        2.59136457093665       -3.57339169975213
C            1.38261700377627        2.51462004641732       -3.79123417724400
C            0.59522231784190        1.71137447664805       -2.98907775080638
C            1.17478393624759        0.98199416463414       -1.96547494707351
C            3.02332930764130        1.09821885823013        1.08669096507146
C            2.58193559205950        0.48686439425018        2.23452033599296
C            2.42924180720099        1.23008598500504        3.39158670938652
C            2.71581890833956        2.58147215237390        3.38216502716443
C            3.14809159462870        3.19158037729271        2.22022647189593
C            3.30115811441905        2.44495243479723        1.06607001633473
C            4.98260951366321       -0.14180957794903       -0.73242139768733
C            5.33792412652423       -1.17567377309169       -1.56429267959332
C            6.67231898906926       -1.41155886058376       -1.83422359441097
C            7.66393587266585       -0.60571019877822       -1.27135950880778
C            9.04758826831936       -0.83405635526052       -1.52241525862312
C            9.62661547174913       -1.46988822352733       -2.58047826816934
C           10.97738387041161       -1.68288781419053       -2.69876712365396
C           11.88895887009185       -1.29253141195932       -1.76536638120722
C           13.21275420961292       -1.44318421136688       -1.76356977238512
C           13.98855612596938       -2.00565152815657       -2.67059632290803
C           14.78647408654824       -0.48009158444026        2.82738331435171
C           14.24233406203762        0.37340811157666        3.63359880666260
C           13.31026705265807        1.26062329748766        3.35684207881645
C           12.72284048025394        1.50304524244811        2.17815809624345
N           11.79616854245374        2.34086125273578        1.84666120501181
C           11.15386514841989        3.20713028915955        2.58687744614922
C           11.37003336428595        3.42193672797265        3.87643537825810
C           10.56743619327659        4.20788901995987        4.59815475737221
C           10.60750876891470        4.38762092750810        5.93386923474777
C           11.49840418954379        3.77647637490592        6.79436781263746
C           12.44731039903903        2.91470035433031        6.40833758969035
C            4.65957406989718       -2.05963932930889        2.00540071519534
C            4.86491543898115       -1.94655903855520        3.28088356927160
C            7.27392803904225        0.43629160209841       -0.42880740153014
C            5.93923261866480        0.66603787439275       -0.16381538390491
H            4.38258754230605        1.91066448959979       -2.36690010572352
H            3.35751538540919        3.21966274361643       -4.19877836007322
H            0.93258548950095        3.08338133950055       -4.58845913697174
H           -0.46733411390100        1.65213992066978       -3.15853629905838
H            0.57847987492502        0.34739538280271       -1.32812431302015
H            2.35623767445113       -0.56770741720453        2.21714823032826
H            2.09195670858599        0.75412841383823        4.29815463327909
H            2.60042397108208        3.16108070763385        4.28342095535207
H            3.36486354962185        4.24733078602952        2.21142845558037
H            3.63095383325842        2.90868596193441        0.14994494054383
H            4.56742333398253       -1.80022855782198       -1.98941679754464
H            6.95397388764565       -2.23099199226207       -2.47190755814465
H            8.98229960902543       -1.81444904372176       -3.37199819467479
H           11.34236257732709       -2.19183133351907       -3.57502565004070
H           13.64082040832372       -2.42212506741573       -3.56939485287915
H           17.50867951439979       -0.80376227909421       -5.40581903672492
H           23.71870197966382        1.25961477137288        2.97344092536379
H           12.94203892545917        5.25125968357405        4.46606603913814
H           12.09768245900010        9.58104549153154        4.84468602273637
H            9.88230195282184        5.06872132529819        6.35055220960910
H           11.42562260921530        4.01459195571254        7.84508247877260
H           13.13366122044340        2.45448179963979        7.05699768469108
H            5.11697031139049       -1.45419623456100        1.27971044521503
H            5.52140745852241       -1.25064809814800        3.71866269334879
H            8.03022489230348        1.06156381382923        0.01341307573248
H            5.64122920006281        1.46722116645276        0.49198414960992
