65
 energy: -12.923683509567 gnorm: 0.000844899487 xtb: 6.5.0 (97a52f5)
O            4.29635439218476        0.81358430792040        2.32162240016074
P            4.39821771005081       -0.46301539171351        1.44829524042766
C            3.81522950408794       -1.90017424602754        2.34556869155736
C            4.38546730180019       -3.13309464592610        2.13421575770581
C            3.91297005767318       -4.23068664523345        2.83038549952450
C            2.87207199236258       -4.08078778722209        3.72634614260623
C            2.29869485175553       -2.83962185384830        3.92461449024813
C            2.77161978219973       -1.74338591065280        3.22466098150932
C            3.38112546326330       -0.26516691222498       -0.01806976278910
C            2.69782999606568       -1.33505093538331       -0.54634959419403
C            1.94559359366412       -1.16464186240931       -1.69413093279733
C            1.88876982357655        0.07498686267150       -2.30143483353077
C            2.58173299831030        1.14345781051270       -1.76575631092414
C            3.33437498168041        0.96974921303750       -0.61738303675863
C            6.07928303625883       -0.74249948347827        0.86969257971319
C            6.25705891526388       -1.33614394031080       -0.35844845679576
C            7.53189212704399       -1.57222297342064       -0.83401215627609
C            8.64858914173206       -1.21110909360894       -0.07896592129083
C            9.97616969187722       -1.45021472521927       -0.53569486848586
C           10.42357573589055       -1.67107194217612       -1.80155321975939
C           11.72786865204593       -1.93870879155615       -2.14059404369064
C           12.79628165601975       -2.04235709111699       -1.29686475070505
C           12.89065894861036       -1.92029259533281        0.03046701982816
N           13.94415608954444       -2.03285449267257        0.78469078725600
C            8.60697662220891        2.40450159599226        3.77252577501102
C            8.83864411302452        3.66154898978429        3.30861783240764
C            7.78564227956732        4.51058919302773        3.06700139355269
C            6.47843682808738        4.08434423093676        3.29333154431498
C            6.24730434990965        2.81724584413882        3.76207565151433
C            7.33257734809659        1.97728450680745        4.00758728160333
C            7.25100411684364        0.69145305223372        4.42985629767099
C            6.10269584213467        0.08955476664862        4.74551506707686
C            5.79724372330441       -1.22327594249375        4.74646404250677
C            6.62082304028858       -2.31265671280150        4.51753024201194
C            8.00009409369905       -2.36087267081229        4.38338673996202
C            8.84115246205718       -1.33360886424099        4.54026699617835
C            8.10306052390670        7.19480898536874       -1.56350959143214
C            8.43985100188101       -0.61710374167567        1.16504561853860
C            7.16253059894614       -0.38822275816282        1.63281915141260
H            5.20051981425642       -3.23124185578267        1.43545599671487
H            4.35829311478042       -5.19963235107381        2.67541009215620
H            2.50481542861506       -4.93514384556526        4.27102526076193
H            1.48597800577577       -2.72400922833061        4.62268039705102
H            2.33949974911440       -0.76481199978784        3.36600378938344
H            2.75519054745710       -2.29632862356482       -0.06182905181261
H            1.40602978362642       -1.99796693761622       -2.11330675946337
H            1.30256480246991        0.20880556229841       -3.19582250459559
H            2.53783736885377        2.10959956239155       -2.24089348467713
H            3.88350247223175        1.79109845124452       -0.18359500472458
H            5.39563637470878       -1.61450491372071       -0.94422989366321
H            7.66838395267881       -2.04820930983140       -1.78899548744332
H            9.69753848203996       -1.62061407329098       -2.59596724754833
H           11.94595614983892       -2.08885120077235       -3.18610933277004
H           14.86359006044137       -2.24232572301046        0.42252776022894
H            9.85261677075750        3.97787130524202        3.13017926702871
H            7.96910797484540        5.50560793057584        2.69630038664501
H            5.65208598498725        4.74574105218881        3.09147186710095
H            5.24840941360205        2.44748325715787        3.91251662952342
H            4.75368473863195       -1.44217904419388        4.91186369134673
H            6.11681548654611       -3.26577128099816        4.44618335720340
H            8.43694867371099       -3.32406133027827        4.16529955732977
H            9.88556600927215       -1.39472065766849        4.43866531585155
H            7.17491452233299        7.56112647304992       -1.78700178508187
H            9.29193483890313       -0.34056178432883        1.76166420927019
H            7.01618605308927        0.04919322759893        2.60723723192516
