81
 energy: -15.540091570374 gnorm: 0.004465414327 xtb: 6.5.0 (97a52f5)
O            2.28889786357061       -1.70622177661920       -0.23784330283632
P            2.83285485153703       -0.70495321802838        0.81875072921213
C            2.20940805077568        0.94535009962977        0.47510109249379
C            2.42969966578973        1.96507851151507        1.37064963359579
C            1.93944183377400        3.22912271681621        1.09805777436998
C            1.22772127567827        3.45505360725612       -0.06389068383288
C            0.99516833287750        2.42066253584766       -0.94927434802182
C            1.48405670280831        1.15708305863025       -0.67157347563853
C            2.21882296168365       -1.14016573806305        2.44084365432939
C            3.07107991695256       -1.21219928481121        3.51671968045993
C            2.56585513821630       -1.52135951516286        4.76671197640712
C            1.21222287155883       -1.74973162333874        4.92442012174339
C            0.36334382334256       -1.67036400825615        3.83780618076450
C            0.87120584090811       -1.36075902724445        2.58783082215218
C            4.63227976672922       -0.68835587105498        0.79673022861895
C            5.31119171203080       -1.88281912221954        0.75629233084894
C            6.68667668090846       -1.88853893417581        0.64213818201023
C            7.39937282977346       -0.69320373742413        0.55270772706806
C            8.84968504257217       -0.65358398097216        0.36203250451090
N            9.56888388640671        0.42702761992451        0.60327458553769
C           10.86043024316238        0.11339151967332        0.29589732063625
C           12.02235931830350        0.89865469083054        0.34338148287228
C           13.20953178589950        0.35038462582997       -0.06717032309245
C           13.27714351115306       -0.96862108754048       -0.53612063449180
C           12.15625163576697       -1.75478776211734       -0.59637906571049
C           10.94002519856743       -1.21387337452181       -0.17117868117002
N            9.64336553875440       -1.71662960375543       -0.12520768025824
C            9.25689741857183       -3.03739535360399       -0.56814299661685
C            9.84771377210045       -4.13536601009528        0.06224658272169
C            9.54168141088450       -5.48222485791385       -0.06754357322765
C            8.43503458769963       -6.04151690213083       -0.61853643390026
C            7.11142018808056       -5.56732762338903       -1.00857812489221
P            6.66569717896496       -6.06312206351582       -2.56289643236480
O            6.00388627144462       -5.54246748165203       -0.21100870767688
C            5.34023040183582       -1.22790991796028       -2.81095013945269
C            4.40774412763513       -0.47439431444563       -2.29543416118807
C            4.40531956604175        0.90976562633327       -2.31592428150067
C            5.37529440604709        1.71866503482083       -2.87792584508529
C            6.47504932430836        1.27131260000161       -3.49203436309221
C           11.64798359163860        2.02501566052448       -4.35660217357727
C            6.36774064465560       -4.46214411916754       -4.32873124125357
C            5.12699737566006       -4.69240914058965       -3.82815794203616
C            3.94408031261325       -4.08658591800199       -4.24958725002849
C            3.82968816222829       -3.15424093818948       -5.26617445038421
C            4.85076605130694       -2.70271267931909       -6.00255876578370
C            2.88470420626797       -4.40521586475296        1.45232903405582
C            8.40228855721768       -3.14396408199983       -1.60290518989886
C            6.69097573517994        0.50414229205995        0.63164200017218
C            5.31754222183208        0.50470380576121        0.75127831930645
H            2.97266763893865        1.76887377659555        2.28157274077751
H            2.10906814010011        4.03365208912644        1.79452312251426
H            0.84334564771286        4.43960471206425       -0.27345254227655
H            0.43105764646443        2.59430670214436       -1.85063177678515
H            1.30019913162922        0.33084869490110       -1.33987287970981
H            4.12396401275434       -1.02767236579013        3.37663957936145
H            3.22773105250462       -1.58044720271247        5.61463608606424
H            0.81766110345443       -1.99111664574825        5.89840525907520
H           -0.69263903628254       -1.84644986915286        3.96184757056064
H            0.22548946729629       -1.29064814285744        1.72604493850575
H            4.75839009858577       -2.80714720920226        0.78987427704727
H            7.21692515196018       -2.82250522093329        0.61501629075105
H           11.96235143319105        1.91382248685367        0.69263945490463
H           14.10712247527732        0.94600598783101       -0.03794807826575
H           14.22457593470589       -1.36674532085270       -0.86030457169459
H           12.19339321185439       -2.76188247455988       -0.97022397626754
H           10.66009009117381       -3.88785508964914        0.72715738027257
H           10.23818042696260       -6.18203408887932        0.36976915125364
H            6.98208969189198       -7.72205578557106       -3.41480639138135
H            3.61472900859147       -0.97423452601826       -1.76214190703767
H            3.58239670715592        1.40443432943055       -1.82785819238914
H            5.23961587473276        2.78621400608988       -2.80109357211919
H            7.21460459695207        1.89134310547806       -3.90625126673078
H            7.22675642478622       -4.99489347318494       -3.90931233956050
H            5.06932563294247       -5.44051741461156       -2.98835425703186
H            3.03878350135567       -4.37261519297277       -3.73862746343500
H            2.84824612662501       -2.75885496911090       -5.47555111439963
H            4.76232634303843       -1.99316973909224       -6.77240000839790
H            2.49723895526396       -3.61832494971886        0.92561458111970
H            7.97568468424123       -2.30951138617406       -2.07377706271083
H            7.23293447093570        1.43187150106664        0.57529433706196
H            4.77503270869746        1.43489394972379        0.77179087812928
