81
 energy: -14.497560207198 gnorm: 0.001219485494 xtb: 6.5.0 (97a52f5)
O            0.72816593181244       -1.66039964275505       -0.40972099773376
P            1.85901151044925       -0.87967952437173       -1.12959033551962
C            2.83253880897143       -1.97459040486520       -2.16332640738062
C            2.20915757977738       -3.03114244051628       -2.78050137392147
C            2.94290107865388       -3.87507460909019       -3.59540301570604
C            4.29155051124729       -3.64514306812181       -3.78629197280502
C            4.90778999096956       -2.57368351043147       -3.16985243688576
C            4.17208287533384       -1.73198346917701       -2.35568244829271
C            1.17295635468562        0.40288750118029       -2.18039820999968
C            1.89567532212604        0.87952458640211       -3.24792398229061
C            1.37897751968363        1.90492645989394       -4.01824678985237
C            0.14601371498774        2.44424585696983       -3.70704701882669
C           -0.57108054147197        1.96241850819855       -2.62910411634155
C           -0.05102389907376        0.93646034754134       -1.86018672429620
C            2.93089610617106       -0.06185807096258        0.05852609235603
C            3.72753758014320       -0.79139179951282        0.90791068293955
C            4.55766116354802       -0.13875880271828        1.80027313367978
C            4.58026279994073        1.23789149158822        1.84531594432810
C            3.76757379968135        1.99620716984112        0.99299932794752
N            3.78322726388201        3.41071158007314        1.01383609411527
C            3.26103988900344        4.15914025956224        0.16542036435583
C            3.43950759264173        5.50768127034686        0.46738111974147
C            2.94701995254502        6.60291345951857       -0.26996222796206
C            3.15480970791647        7.87495735896560        0.19869828864197
C            3.83980900940230        8.10859773190770        1.40028052606365
C            4.33033724041438        7.06395783078003        2.14221792419570
C            4.13158132019117        5.78253975476955        1.66064651276176
P            4.56294045788011        4.20900039997909        2.25347182527465
O            4.49895843183910        3.88246146850257        3.73105255475709
C            1.79595758521591       -1.85095205607176        3.32198703777917
C            1.23287167850445       -2.92025645497552        3.74394590363871
C            1.00100596067640       -4.04127834298335        3.08018274368692
C            1.29496957880315       -4.35492260759239        1.83055072259975
C            1.97513254600859       -3.67172810918802        0.80803818604728
C            3.19148015188109       -3.63891195502039        0.73693537414793
C            8.01362455273793        1.30933988607674        3.43645729075864
C            7.90437894777051       -0.00666307245678        3.36620575460523
C            7.08271495638547       -0.64595305643063        4.18210291603426
C            6.36743787160593        0.03090886865475        5.06492555810237
C            6.47832441381934        1.34697380641866        5.13550068290069
C            7.30167037040312        1.98578883677665        4.32147076111769
N            8.63700172788357        4.32423311080577       -2.84934434169239
C            8.50413848543652        4.26689900671360       -1.59122966146736
C            9.43155858945020        4.13156093044095       -0.65046927323572
C            9.31033635297157        4.06679243978066        0.66581150799797
C            8.23020510135240        4.11836130674116        1.47623908955037
C            6.96559027522197        4.26022370988254        1.05619747317300
C           12.16456383955679        1.56249066589900       -0.24093920329578
C            2.94529798683190        1.30862277994881        0.08660865031966
H            1.15459312853288       -3.19209759931124       -2.61969439427796
H            2.46229291250650       -4.70908761707374       -4.07949453673574
H            4.86414752428333       -4.30234907450104       -4.41997398709506
H            5.95924126972927       -2.39341198104987       -3.32109806747268
H            4.63830112486005       -0.89241984178784       -1.86521220654743
H            2.86100107618815        0.45428589538410       -3.47082799861380
H            1.93983956786531        2.28444227630542       -4.85634923534209
H           -0.25636457439976        3.24507739606649       -4.30549747889005
H           -1.53063969057804        2.38698645280295       -2.38437585615516
H           -0.59026145437578        0.55046072409770       -1.00918464528859
H            3.68846333867349       -1.86886662169028        0.87781037524216
H            5.18819440446552       -0.70624520106101        2.46255443872338
H            5.23610733753317        1.74695923625075        2.52764697359070
H            2.40993091402317        6.41657004201757       -1.18206508155188
H            2.77936356287710        8.71387176809272       -0.36370004132490
H            3.98205080502420        9.12002123114177        1.74284918383767
H            4.85838660148154        7.21672033488623        3.06724451137993
H            1.83075599178657        4.50372544839937        2.40154493452284
H           -2.16930847536821        1.83834083903428        8.08398985690523
H           -1.46984252544091       -7.13856410460994        5.38803097077566
H            4.11682819314822       -3.86948933007423       -0.79184817131979
H            4.40642260348678       -4.17566642208767        1.94418463972960
H            5.93893678659956        2.26862039905069       -0.83908429957796
H           12.26740873475433       -3.25173383950370       -0.56707384922919
H            8.86696042009523       -7.78536229446578        7.24325533721980
H            2.79837131768117       -1.22580880649945        7.71105495207069
H            2.21099555432252        1.53049633044793        3.46122940856225
H            9.13055686915584       12.99350489541142       -6.30727292082713
H            8.40782927490892        4.02933413807748        2.53583314494489
H            6.09977729073125        4.29977271921159        1.71376834556950
H           11.41430672264862        2.25805930702739       -0.23414124508919
H            2.32789366710939        1.87666594944628       -0.58849271171881
