105
 energy: -23.344414785172 gnorm: 0.000830645795 xtb: 6.5.0 (97a52f5)
O            5.04394514116493        1.27425307565550        3.12322909871668
P            3.88653811205033        0.90188963533610        2.16799659606783
C            2.69022286508861       -0.12018002989524        3.02430171746978
C            1.91475866308697       -0.99398194506912        2.30124382866224
C            0.97321382222332       -1.77131135283291        2.95032157961742
C            0.82047101365829       -1.66243514260130        4.31913215962078
C            1.60428116743900       -0.78017075453763        5.03804646611884
C            2.54403856061389       -0.00241043731682        4.38463603828141
C            3.07958203539978        2.38713537156187        1.57585094279345
C            3.83728254247953        3.30357319426171        0.88883774361306
C            3.23615820450397        4.44235036231877        0.38158678420720
C            1.88246539932368        4.64598936139631        0.56742996136534
C            1.12876209951672        3.71752496267549        1.25912893877226
C            1.73189377283170        2.58123949905870        1.76619446510937
N            4.44804293024418       -0.01642695314870        0.80320419257085
C            5.37314463255165       -1.03998184961088        0.96902196343342
C            6.23067093741121       -1.34103267756609        2.03324795006412
C            7.04215589660029       -2.44181144852709        1.93527735895025
C            7.01883003714645       -3.25725657042803        0.79703614326866
C            6.18012867894309       -2.98510138697600       -0.25607181120687
C            5.34689388861596       -1.86665146072032       -0.17683830970619
C            4.32558074561876       -1.33935824445593       -1.04872557334509
C            3.80936576782421       -1.77915670012092       -2.26703806439586
C            2.75344702398372       -1.09498177916720       -2.83781932383479
N            2.20529974581854       -1.53514709468422       -4.09325573134687
C            0.85029587384594       -1.81828000099251       -4.35560694192119
C           -0.27334876327369       -1.76087631206906       -3.53074927780819
C           -1.49515076011415       -2.10502165459603       -4.05460848823507
C           -1.62082577185840       -2.50935702857870       -5.38756035729244
C           -0.52398076701352       -2.57808431679169       -6.21214076091298
C            0.72514060279435       -2.23220941686497       -5.69366642864548
C            2.04538800806259       -2.20611231603467       -6.27529192678963
C            2.51260509096993       -2.51255045961892       -7.55180665898867
C            3.86224992600681       -2.38465859267414       -7.82385485864592
N            4.36834202366532       -2.70669299175422       -9.13187668585492
C            5.15773182409917       -1.87385433488478       -9.94942134871055
C            5.63101947260003       -0.57712176735061       -9.74887407987700
C            6.38604542582984        0.01011199506903      -10.73417367207905
C            6.67851814487463       -0.66962836536384      -11.92089557800982
C            6.21603891760833       -1.94510145148578      -12.13757579905933
C            5.44644802461135       -2.55495339182966      -11.14528066661715
C            4.81715850399416       -3.85056488931525      -11.06295544624116
C            4.77918217388598       -4.93098988192752      -11.94223657819389
C            4.09040893342058       -6.07267893650756      -11.57675956565047
N            4.03811000136250       -7.20068125763664      -12.46927008062251
C            4.39100833823773       -8.52745806393660      -12.15281247622042
C            4.87695864125304       -9.08721405157489      -10.97108622091798
C            5.15153239199749      -10.43225353308243      -10.94148050477238
C            4.95298037852554      -11.23385145435804      -12.07019700631658
C            4.48076614716156      -10.69823518946066      -13.24387014564434
C            4.19796127149275       -9.33130595184475      -13.29022373924845
C            3.71039658043503       -8.47369232550641      -14.34308563530967
C            3.34717744406589       -8.72266938064287      -15.66848739400802
C            2.90292269612464       -7.67470220991737      -16.43774383490056
C            2.81154567392144       -6.38252855527041      -15.91049447658968
C            3.16514771949010       -6.12186459999902      -14.60955066870132
C            3.62341050906151       -7.17322724748764      -13.81540692384960
C            3.44127878467905       -6.13052321232406      -10.32957576945122
C            3.47167207277802       -5.07526274746867       -9.45517790381233
C            4.16182709954995       -3.91921136515829       -9.82138175880004
C            4.74168450051785       -1.94595890229300       -6.81652267051421
C            4.29530884224034       -1.64223863581179       -5.55662430177844
C            2.93506994462743       -1.77640988305369       -5.27531734916698
C            2.20953608991782        0.02918620363257       -2.18695443434769
C            2.70070891267808        0.47159882408868       -0.98906140835350
C            3.77312303892157       -0.21132584793502       -0.40350018315987
H            2.05042989718761       -1.06570558532870        1.23464407795302
H            0.36148935983305       -2.45885870913931        2.38954944656812
H            0.08807360581536       -2.26813711312533        4.82721218835973
H            1.48427272434753       -0.69607592766757        6.10567823919143
H            3.16656378611127        0.69175721242113        4.92702426206100
H            4.89132536965101        3.12134033714608        0.74638011818081
H            3.82291769457199        5.16597491052516       -0.16003921420438
H            1.41270919779747        5.53133993869322        0.17119187433756
H            0.07263431608418        3.87708420086309        1.40245591182250
H            1.15654592440058        1.84360439487287        2.30164383391432
H            6.23993482138748       -0.70180628832720        2.89724006534402
H            7.71006246021947       -2.68343552044594        2.74566623027557
H            7.66743045244992       -4.11654261897173        0.74993296089563
H            6.14938372779925       -3.61562214928314       -1.12706359899918
H            4.21318014589667       -2.65100728874534       -2.74621933525707
H           -0.16816513080023       -1.45669883965305       -2.50480732785474
H           -2.37193017265605       -2.06451015569485       -3.42937096732549
H           -2.59238571092154       -2.77309944804967       -5.77184274357280
H           -0.61145417488159       -2.89163276266641       -7.23739019244039
H            1.83337937344812       -2.83703928823317       -8.31736383601962
H            5.39628565006895       -0.05786919032956       -8.83710701074033
H            6.75883756480050        1.01122215739441      -10.59242667039523
H            7.27406881363080       -0.18417953298648      -12.67642518914723
H            6.43391830141771       -2.47379176772300      -13.04868429939573
H            5.28664666276056       -4.88288515620495      -12.88719029289326
H            5.03379871128525       -8.46339248850210      -10.10952442280051
H            5.52746452384991      -10.87807498958357      -10.03526341076834
H            5.17662291820031      -12.28666782431114      -12.01797466392772
H            4.32917127822332      -11.30751817365920      -14.11727502846471
H            3.41730200093884       -9.71980911021728      -16.06578754227255
H            2.61879165828599       -7.84988780827309      -17.46231252179244
H            2.45628939157736       -5.57980495376317      -16.53556919565201
H            3.09042839143772       -5.13251861398726      -14.19517235458681
H            2.90661005870293       -7.02835263242243      -10.07365711502500
H            2.98028461057526       -5.12441944223198       -8.50017793305471
H            5.78761534552947       -1.86115254693441       -7.05369900578576
H            4.96853837815317       -1.30348461115521       -4.78980321489782
H            1.39361897772149        0.54710508732125       -2.65974649643644
H            2.28332144790440        1.33055616449562       -0.49825073409257
