85
 energy: -18.734698333912 gnorm: 0.000773519259 xtb: 6.5.0 (97a52f5)
O            0.78958880462957       -0.33443056191350       -2.05943734110440
P            2.32494433461688       -0.41088635817583       -1.89305839590760
C            2.82005589985534       -2.10307692146326       -1.57217213558342
C            3.81283338420504       -2.34550376007486       -0.65398874064669
C            4.21364595090023       -3.64531931898698       -0.40619672089867
C            3.61374946443532       -4.68802124121738       -1.08560693318216
C            2.61722775998655       -4.43447855740648       -2.00882975211161
C            2.21907962041182       -3.13215082983556       -2.25418332071075
C            3.13490497126445        0.16150900350268       -3.38298734075984
C            2.75516423938208        1.36973845920354       -3.91354972425204
C            3.39969759706312        1.85272333542065       -5.03906008832646
C            4.41962944040572        1.12041638972211       -5.61515936520126
C            4.79634850252757       -0.09256772211967       -5.07219763220021
C            4.14950612002115       -0.57383639723548       -3.94877334750415
N            2.87172025007000        0.53109871350798       -0.53743762013167
C            4.14876643489642        1.05177904937404       -0.31431480416918
C            5.19943795788893        1.34108948856204       -1.19180753043406
C            6.37557015639614        1.82580375907881       -0.68079432552904
C            6.53855401813380        2.02557125680240        0.69485669534348
C            5.52668780567837        1.73752399748295        1.57715899554920
C            4.31808066948959        1.25008303983757        1.07436794225511
C            3.11554569467840        0.77701252371458        1.71673331059842
C            2.76573742112940        0.60041504144718        3.05540297010144
C            1.57013084962843       -0.02114534661756        3.36399660268878
N            1.23186595269883       -0.28467714023231        4.73779408747312
C            0.02334389490963        0.03897581536821        5.38494781168742
C           -1.10193722902893        0.72757686225503        4.93185217358463
C           -2.15846278693830        0.90307199699899        5.79127563236897
C           -2.11627247238230        0.40549908321188        7.09764248445971
C           -1.01486877955936       -0.27224168581583        7.56147984880252
C            0.06780236791161       -0.45797269335320        6.70002071319177
C            1.34186816853439       -1.11456454642792        6.86790315631447
C            1.91123792915541       -1.79841606448048        7.94053245045566
C            3.16674598352306       -2.35842964498457        7.79233682808065
N            3.77014065569203       -3.07905407329294        8.88225171299874
C            4.28558132863319       -4.38898984553286        8.82471639596368
C            4.34195944759720       -5.30427169939461        7.77333938676981
C            4.90036269021919       -6.53781736278998        8.00071010689626
C            5.40349059001930       -6.88066881062964        9.25966079963855
C            5.35068868689551       -5.99414930012346       10.30787836689237
C            4.78468122116072       -4.73563261755455       10.09267660639270
C            4.56932667172550       -3.60402837165157       10.96154937834155
C            4.86266098026618       -3.38191162454697       12.30877782087558
C            4.53212214037059       -2.16942758858025       12.86365018563901
C            3.91586755857809       -1.17242666617655       12.10070020767553
C            3.62055558165329       -1.37585182300255       10.77528820627945
C            3.94489888559539       -2.60300397242826       10.19655999093076
C            3.85101053649503       -2.23235162810440        6.56923942817128
C            3.30198220354429       -1.56434034731935        5.50605268513166
C            2.03657568511285       -0.99462228237951        5.65198565895464
C            0.71384459516475       -0.45803413480502        2.33428522896779
C            1.03953401540885       -0.29420607621683        1.01561147199363
C            2.25323380959584        0.32597978567961        0.69168998997761
H            4.26217006125840       -1.51801236283665       -0.13032177454021
H            4.98964508140549       -3.84272716848324        0.31498676001701
H            3.92359814729868       -5.70233374868066       -0.89444081658342
H            2.14976332503661       -5.24914898478118       -2.53709905311669
H            1.44155701894141       -2.91343666876890       -2.96915361540701
H            1.96168705472352        1.93023989905915       -3.44398711991472
H            3.10758780843538        2.79946276162666       -5.46281722399134
H            4.92314314233523        1.49658824188742       -6.49063584315417
H            5.59358951585560       -0.66216097455634       -5.52084618423082
H            4.43823047898963       -1.51392457615433       -3.50713341231287
H            5.07178946884183        1.18310746810270       -2.24606772018930
H            7.19039819812166        2.05358958427574       -1.34815579584797
H            7.47665621706441        2.40370059301342        1.06686652758839
H            5.65134787415203        1.87262252491277        2.63710095894707
H            3.42930453236276        0.91751574410813        3.83767649075737
H           -1.12482670592703        1.11162455758029        3.92774543690149
H           -3.03459029052486        1.43273406080551        5.45495077361644
H           -2.96076407939359        0.55727968943996        7.74954937951250
H           -0.97452927672800       -0.65794894898736        8.56481875481901
H            1.37637037020286       -1.90327011526439        8.86551375292676
H            3.94611395518258       -5.03698449931833        6.81006857193326
H            4.95121460178485       -7.25432919129483        7.19736762955557
H            5.83638053152569       -7.85607935589891        9.40909517624873
H            5.73194473847781       -6.25180484315999       11.28013085909616
H            5.33887848924174       -4.15289100452048       12.88826344930207
H            4.75206111003438       -1.98197443541062       13.90174335223508
H            3.67034792113774       -0.22952843666290       12.56110006819634
H            3.15304933043093       -0.61163766644485       10.18078959927983
H            4.82936724215745       -2.67153055319594        6.48354099939980
H            3.82260328446357       -1.47773950637886        4.56937836658758
H           -0.20319496540781       -0.94996385820913        2.60710649701498
H            0.39800815829830       -0.63801881221160        0.22487494246164
