65
 energy: -14.125425216151 gnorm: 0.000488404131 xtb: 6.5.0 (97a52f5)
O            0.73015390260329       -1.19985342772585        0.95584409840805
P            2.27329515866332       -1.12850085669452        0.89917300370477
C            2.88281459775937       -0.08501445630761        2.22154957757335
C            3.91111750124179        0.78841143530073        1.96326845076545
C            4.40108154837300        1.58767749941131        2.97969810278805
C            3.85364728997481        1.49867712280103        4.24505543940505
C            2.82061176659272        0.61577105889414        4.49573945331581
C            2.33290509115954       -0.18227837348029        3.47592995512017
C            2.97286441625038       -2.76689499549349        1.07613253836484
C            3.96881494789860       -3.00451995915618        1.99369455298331
C            4.53237894404507       -4.26436092784803        2.07806758211438
C            4.09291287723840       -5.27134288365268        1.24090367397155
C            3.09239726863243       -5.02291211326073        0.32127559131849
C            2.53050874851931       -3.76085891062664        0.23820982412164
N            2.82519967554856       -0.42551741894144       -0.59311671153278
C            4.05742505144551       -0.60023837342798       -1.22603233031815
C            5.03981496890565       -1.58756597561736       -1.09315759753586
C            6.17649158653494       -1.49829510828362       -1.85387157524927
C            6.36634674012658       -0.43920476960400       -2.74892766873430
C            5.42119565174387        0.54635127005688       -2.89027901516343
C            4.25465616844454        0.47027004206259       -2.12624702347321
C            3.11946115125631        1.34993117758295       -1.99007524196130
C            2.81249043170649        2.59158993977581       -2.54544396199219
C            1.67033974120846        3.25161163258258       -2.13320563936314
N            1.35603046018916        4.54790144810593       -2.67424258075955
C            0.13794107038125        4.92975195913988       -3.27017803200556
C           -1.03635912083383        4.21084416541685       -3.49490237650750
C           -2.08632704082101        4.83898016916675       -4.11796832253881
C           -1.98916853333580        6.17301257652748       -4.52627960859431
C           -0.83872817892659        6.89431012899587       -4.31810478397472
C            0.23809968914836        6.26946812737586       -3.68563867743677
C            1.55960427875053        6.72987720193033       -3.33414876182013
C            2.20477960118391        7.95719278248273       -3.50085279496493
C            3.49333387858836        8.09170229458601       -3.04385310072932
C            4.15099274368411        7.02637848799597       -2.42071429333372
C            3.53073748936328        5.81333032180498       -2.25104822399476
C            2.22434677355648        5.65668142566558       -2.71519314045508
C            0.82846752196022        2.66869076922123       -1.16552195869391
C            1.11161031639756        1.44980445061890       -0.61130725493516
C            2.26796272437149        0.77441311476421       -1.02091700034339
H            4.31868664999625        0.84531280759875        0.96739952047653
H            5.20544734390821        2.27746647103468        2.78386992553571
H            4.23263509637049        2.12101554219161        5.03908817619243
H            2.39421374263775        0.54816837898610        5.48309438287045
H            1.52583251630030       -0.87636283704561        3.65047701088331
H            4.30799585194523       -2.20559975526571        2.63299248962120
H            5.31427005612430       -4.45830106887838        2.79384971652015
H            4.53203164264084       -6.25342582287277        1.30524101975013
H            2.75200125924906       -5.80858216040460       -0.33297261837384
H            1.75467428085868       -3.54406891120202       -0.47970267264269
H            4.88996668481625       -2.39991708072230       -0.40739664811704
H            6.93661132890473       -2.25690477764908       -1.76374235206967
H            7.27111686589649       -0.39583954083842       -3.33260708669358
H            5.56604869872162        1.37002258051421       -3.56681724693068
H            3.46172515928710        3.03592345138757       -3.27602488762721
H           -1.10146305232078        3.18340401064964       -3.18480664717002
H           -2.99980638716928        4.29613933268065       -4.29714818143917
H           -2.82908599025430        6.64035636393560       -5.01332078004166
H           -0.75484924416485        7.91958391006180       -4.63239224221424
H            1.69107473725416        8.77287816514876       -3.97806103002973
H            4.00537991122267        9.03205096756047       -3.16509748985615
H            5.16018903904955        7.16124567123468       -2.06777264256890
H            4.02770976291105        4.99226858707143       -1.76624624175236
H           -0.04693367259787        3.21226519043379       -0.85645066484033
H            0.47435881879458        0.99945847219121        0.12776302297613
