46
 energy: -9.535635834874 gnorm: 0.000331146577 xtb: 6.5.0 (97a52f5)
O            2.59790821800367       -0.26044228174296        0.84686433063578
P            3.85538383425663        0.51695452177698        0.38657978733880
C            3.44852632343689        1.77438921659047       -0.82766815679228
C            2.15679758569524        2.23607672971417       -0.89242828438356
C            1.82597700255236        3.21270983597482       -1.81418352775559
C            2.79506635709351        3.71472441474097       -2.65986290128111
C            4.09156826728131        3.24523704717615       -2.58701921450623
C            4.42024118712401        2.27056036104624       -1.66337630346628
C            5.13683556510249       -0.58188278047820       -0.22587307956437
C            4.95208470071369       -1.45585470675986       -1.36564443572636
C            3.67005682630951       -1.68417354987030       -1.86360404221245
C            3.47172850034085       -2.49357777389421       -2.95731777782022
C            4.54530332282900       -3.10046202579720       -3.57652751532609
C            4.32672406636003       -3.97537175442026       -4.80670665773148
F            3.12631571426873       -4.57477552276794       -4.70771552300150
F            4.36554405252241       -3.18919947472988       -5.89734054631740
F            5.30287805410235       -4.89948785108513       -4.86468854608806
C            5.82104253968886       -2.88400538681260       -3.09616092136344
C            6.02746551031353       -2.07437750769957       -2.00248145131974
C            6.20649570259704       -0.38661237127173        0.56984170908075
C            6.04546957964501        0.60082359437011        1.66798244512279
C            7.01427749635035        0.94653263308269        2.58971648966385
C            6.73493425414712        1.90750318270511        3.58677625098905
C            7.70471560695605        2.28656289561888        4.54265086728487
C            7.41798502415885        3.21736547146630        5.49331825540305
C            6.15433938275772        3.81676062136618        5.54216261632381
C            5.19332289852869        3.47708921235196        4.63916125163146
C            5.45239983483824        2.51690360941137        3.63861903083367
C            4.47087091461394        2.14823247217408        2.68488024529596
C            4.77829673322942        1.22409323363529        1.74703200899276
H            1.41441720819226        1.82573031181218       -0.22541626723298
H            0.81463635383981        3.58033867281488       -1.87106355273635
H            2.53872770218337        4.47556948898786       -3.37876475157747
H            4.84662842023044        3.63704135720646       -3.24853772692768
H            5.42829626537841        1.89410157538648       -1.59345156566664
H            2.83293863523422       -1.22681525139373       -1.36497363417955
H            2.48097833854003       -2.66941683154920       -3.34106235558825
H            6.64996678600610       -3.35988396044459       -3.59239026711721
H            7.02602189857850       -1.90477387793198       -1.64002325896240
H            7.13297221171722       -0.92687338320921        0.43884719359950
H            7.98276428484962        0.48391653593851        2.54689851502825
H            8.67767014880979        1.82773077449483        4.50790730193884
H            8.16762734799379        3.49752353651726        6.21521211286201
H            5.94359047492796        4.55252467987535        6.30092512166742
H            4.22241790214744        3.93992244667526        4.67854528705863
H            3.49422096555820        2.59745785899853        2.70461144390976
