62
 energy: -13.033328910639 gnorm: 0.000205671394 xtb: 6.5.0 (97a52f5)
O            1.88311363796595        1.01688234697260       -0.98271097073990
P            3.13213547762856        0.26748915891823       -0.45032338603183
C            4.49967731220965        0.33226059947861       -1.60962466133647
C            4.29878821235547        0.91733743527108       -2.83618903335108
C            5.33306050673289        0.95272982136186       -3.75405711063768
C            6.55653338645809        0.39970293749900       -3.43012189800371
C            6.74878987407081       -0.18756462945784       -2.19448809537206
C            5.71266813601371       -0.22260589066771       -1.27887392343424
C            2.74502884429731       -1.42909621145608        0.01997261027026
C            2.32435830486993       -2.46853021481992       -0.89893277824903
C            1.66585939938031       -3.61555796921008       -0.45038534650154
C            1.28210285853897       -4.59343241067235       -1.33416496034982
C            1.55058080198761       -4.47801067358661       -2.69928949946470
C            1.13282353135406       -5.52554655260631       -3.60704774279467
C            1.55383586297385       -5.83364474504202       -4.85040772085416
C            0.90192467289285       -7.00297396446737       -5.49773561013822
C            1.19939485572892       -7.50719644750052       -6.76907286208202
C            0.51580625227453       -8.60978344647759       -7.24022176640184
C           -0.45985672357035       -9.22270323885595       -6.47066513523270
C           -0.76559263573532       -8.73712276634865       -5.21165656706808
C           -0.08445887679142       -7.64282209399439       -4.74537472355135
P           -0.17017769194918       -6.70289859316706       -3.22139158762296
O            0.14453739361069       -7.54964040707639       -1.96084454466242
C           -1.73578113603746       -5.83409071347482       -3.09770495292699
C           -2.16200998398928       -5.07361781883873       -4.16055912780301
C           -3.35565972533181       -4.38109174015602       -4.06872000889505
C           -4.10702918418358       -4.45734946667062       -2.91222055943453
C           -3.66983978583849       -5.22297973314070       -1.84870076215012
C           -2.47550324734678       -5.91479846717782       -1.94332602358413
C            2.20955448620643       -3.33235252682511       -3.14898912878231
C            2.57938948583388       -2.34755682254188       -2.26682164678308
C            2.94611341991457       -1.49042478715412        1.35237684090649
C            3.43403934261457       -0.25053468076409        2.01133887753554
C            3.73484823381712       -0.10967001842868        3.37110826476706
C            4.20152773954647        1.10073705790877        3.84219232229630
C            4.37624532756541        2.17586535348483        2.98583226554598
C            4.08360749069014        2.05265616136156        1.63907928443946
C            3.62020850896751        0.84945818565049        1.17358651704081
H            3.33395819828983        1.34085028540210       -3.06799000422282
H            5.18298054455973        1.40962574479035       -4.71830428520484
H            7.36327973637994        0.42619911406693       -4.14403990882906
H            7.70365448649236       -0.61953331879389       -1.94423851446271
H            5.84272165057752       -0.68215140467620       -0.31201040563978
H            1.44990371609858       -3.72283104886807        0.59806193895203
H            0.77970493353060       -5.47850633573775       -0.98452069970672
H            2.34137470228351       -5.28576863646416       -5.34748560908759
H            1.95883396469274       -7.03118831358849       -7.36401376768357
H            0.74449364995367       -8.99930193590760       -8.21850470036761
H           -0.98417193680459      -10.08252699330091       -6.85396178460503
H           -1.52137348348413       -9.20004384545888       -4.60038353014838
H           -1.55945567326032       -5.02177246035876       -5.05370268208803
H           -3.69609933601833       -3.78211577906490       -4.89721738721082
H           -5.03631437997892       -3.91664153756712       -2.83913753393170
H           -4.25609770242416       -5.28024785560213       -0.94649462365112
H           -2.11332936816760       -6.51517680593855       -1.12399222492464
H            2.41471909522186       -3.22158070906706       -4.19929571834584
H            3.08869993747975       -1.46994641252066       -2.62203860414734
H            2.80298933710482       -2.40017177559557        1.91753436086586
H            3.60188434176614       -0.94701474053274        4.03334364663873
H            4.43442573479484        1.21025805677286        4.88855041461039
H            4.74270327366472        3.11358462600172        3.36982241330453
H            4.21270021143951        2.87770005474844        0.95957436137090
