65
 energy: -13.679537645191 gnorm: 0.000732524974 xtb: 6.5.0 (97a52f5)
O            1.31455689114264       -0.60860893268377        0.91942144372612
P            2.63319348835530        0.01177022543060        0.59470295645350
C            3.21101397108157       -4.40216740079854        0.12142441760913
C            2.69611445666573       -3.23437049849896       -0.39322997825803
C            2.85869608966698       -2.98019825840348       -1.73369257931942
C            3.53931160387705       -3.90946503390199       -2.53439593423905
C            4.05484297266017       -5.08947028658819       -1.97735831502449
C            3.88620816312304       -5.33322658969131       -0.63545903205590
C            4.20991913807606        0.62585166561749        0.14596993987536
C            4.83711905272014        1.52535395203650        1.18456814252016
C            4.04876645667058        2.22479778099179        2.09152271761042
C            4.62010999490929        3.05790974092429        3.02597897832390
C            6.00070972923074        3.22506590723718        3.08063547626855
N            6.59817150890860        4.07990591538355        4.06686070879142
C            6.06019678333814        4.12004054779584        5.39699868139222
C            5.54786511865854        2.96950769519267        5.99179936159697
C            5.03286513417590        3.00726153640643        7.26798708047155
C            5.01965956223704        4.19409809685978        7.97431960364185
C            5.52376774648644        5.34402767350286        7.39863098257118
C            6.03899935046184        5.30878939330933        6.12232247784486
C            7.74625326245972        4.87227803360063        3.72865177581334
C            7.86525555832624        5.45022480818760        2.46702769931547
C            8.96739191513423        6.20884829242255        2.14237960249869
C            9.97147239294677        6.40434934373608        3.07050723077970
C            9.86905564645490        5.83707577907592        4.32568493055261
C            8.76788592440757        5.07814005118041        4.65262584503991
C            6.78848920148202        2.53640596569600        2.16308385482096
C            6.21495696479260        1.70342917162882        1.23033389361891
C            4.25704348462307        1.11094359547871       -1.29294848592145
C            5.02469325935497        0.01687581651884       -1.67947361863459
C            5.66914550546743       -0.63589383828234       -2.75425324376608
C            6.34086406031385       -1.83488589811887       -2.48747566887377
C            6.99367277788089       -2.55126614542617       -3.52191439049610
C            7.63512249991581       -3.72680706137801       -3.26250641704336
C            7.66366461622153       -4.24860166171742       -1.96753161228063
C            7.04943267466856       -3.58789039445069       -0.93702955184959
C            6.37571121943249       -2.37692933666530       -1.15382996098425
C            5.71973165753277       -1.70192104937963       -0.07736293293887
C            5.05704988180746       -0.53869266689717       -0.34985694696743
H            2.19858532611934       -2.52675721599091        0.25379413456567
H            2.47773551453032       -2.06948805875319       -2.16386340075628
H            3.67808684711729       -3.70966814781745       -3.58306512097016
H            4.58515510263022       -5.79408050797272       -2.59537012421567
H            4.27621019738619       -6.22833464983793       -0.17482772707270
H            2.97975065908679        2.10512747018394        2.05676593311191
H            4.00319325228971        3.59676882438980        3.72346244953620
H            5.56925926361596        2.04579305647138        5.44057521048542
H            4.64081736907299        2.10931594995974        7.71673312281963
H            4.61645880476880        4.22274345390355        8.97330178900818
H            5.51288712115912        6.27052419121655        7.94894501370828
H            6.42371563988075        6.20344761248249        5.66502900516266
H            7.07642247460230        5.30132394582783        1.75069101898714
H            9.04661958372937        6.65172052026716        1.16310453403652
H           10.83384600457123        6.99831063518293        2.81578234989732
H           10.65282282371049        5.98759908426816        5.04987624805299
H            8.68774222168104        4.62578929712986        5.62548273394319
H            7.85685041175350        2.65670471850653        2.20140452435488
H            6.83298481304247        1.17715629693862        0.52397553217885
H            3.85020879235903        1.95845289313797       -1.83758147620296
H            5.63393547386465       -0.22377960071054       -3.74475639492368
H            6.97275083645433       -2.15360027918220       -4.52184417515810
H            8.12363575654691       -4.25985347715679       -4.06156309249032
H            8.17059576887510       -5.18102264326719       -1.78050144091584
H            7.06923765832943       -4.00020952803451        0.05695077018094
H            5.72981260438817       -2.10791976627003        0.91648945563521
