59
 energy: -12.477604652919 gnorm: 0.000226462968 xtb: 6.5.0 (97a52f5)
O            2.20310428754890       -0.55330171363321       -0.84460992580231
P            2.31934736722589        0.18853330465215        0.51302359670237
C            3.92776240896465       -0.01890647285289        1.28286307461971
C            4.17284917872021        0.60123539855986        2.48516747468161
C            5.41198674131051        0.46319689257737        3.08441839455646
C            6.39136997665628       -0.29375681760658        2.47095018672254
C            6.13622936211672       -0.91232006720757        1.26206038160377
C            4.89578304636661       -0.77266087768258        0.66504848564235
C            1.94276972779654        1.94188026026171        0.38145024971429
C            2.69831237326576        2.85259706367079       -0.44647515826411
C            2.65918400354134        4.23687277019252       -0.25025731754929
C            3.41322303790096        5.07644386973917       -1.03154174870387
C            4.22341664800563        4.57277478319476       -2.05025198236446
N            5.01043931116048        5.45238233856787       -2.86275888557693
C            5.69578924285931        6.55927872040186       -2.25706308052952
C            6.25097390225167        6.43576392409576       -0.98564662773058
C            6.91670902625066        7.49056895526625       -0.40332743826614
C            7.03924468878448        8.68905369712267       -1.07878416061846
C            6.49183646916443        8.82865121229914       -2.33932782554399
C            5.82611270790747        7.77480433402182       -2.92405066046786
C            5.12158168996876        5.21736749735545       -4.27473681650051
C            4.03863197138115        4.72143714240082       -4.99668220261740
C            4.13657002213474        4.50595322933441       -6.35283610920805
C            5.31816393074161        4.77970132828274       -7.01355402710944
C            6.40265477139580        5.26851537486066       -6.31149467616205
C            6.30682725012317        5.48509460700190       -4.95518577217617
C            4.25556579809104        3.19328537041455       -2.25514303916737
C            3.51528404417713        2.35234856243740       -1.46497524060679
C            0.90252983381638        2.15951079978656        1.21507253009225
C            0.36604573997245        0.97154560402055        1.92573171255055
C           -0.71859370609166        0.96630042681531        2.81221718274560
C           -1.11369354915786       -0.22013931373941        3.39631057125826
C           -0.45074714313125       -1.40513278234684        3.11690237294735
C            0.62299996242036       -1.41752759970922        2.24332297403681
C            1.01261060228273       -0.23852344014099        1.66311735968370
H            3.39687298427275        1.19101816738666        2.94744295359581
H            5.61164856417727        0.94637017889173        4.02674864571319
H            7.35731225467094       -0.40137079586713        2.93664283548701
H            6.90151480723857       -1.50129729288934        0.78392964868786
H            4.67650052116105       -1.24433107040771       -0.27958468838087
H            2.04300124899643        4.63924909190645        0.53447603199765
H            3.38185413966654        6.14036428420433       -0.87452493822949
H            6.16055215755183        5.49657283709313       -0.46850490260751
H            7.34469753583245        7.37998337412600        0.57957886812268
H            7.56179677074582        9.51396098807422       -0.62284235518641
H            6.58598076119824        9.76415908211715       -2.86597033085862
H            5.39090917522762        7.88088006460913       -3.90227605388669
H            3.11774168228811        4.51916990911981       -4.47835016034492
H            3.28943660011067        4.12560880962153       -6.89987249083502
H            5.39366488444602        4.61239083664543       -8.07550808832830
H            7.32531672938967        5.48067383466342       -6.82641006229347
H            7.15132886443378        5.85770232664406       -4.40243534639728
H            4.88280894262301        2.79829130482452       -3.03484847286019
H            3.54145498657559        1.28879606990584       -1.62592397196421
H            0.46141041005774        3.13687032640459        1.34845249330435
H           -1.23264845251238        1.88678800210843        3.02648866193503
H           -1.94888296887796       -0.22554700848322        4.07724505011628
H           -0.77241633220611       -2.32259742119192        3.58175028456348
H            1.15008900697166       -2.32825428189503        2.01511253605212
