41
 energy: -8.459610565704 gnorm: 0.000421557252 xtb: 6.5.0 (97a52f5)
O            2.76150425162681        0.93154983809353        0.25712328434393
P            3.33992044976236       -0.03948468843904       -0.80470371956305
C            2.57262912423873        0.17348136770175       -2.41010876706565
C            2.90506358176934       -0.67914083841040       -3.43399971673023
C            2.29786376250637       -0.53123006963524       -4.66746950616079
C            1.36501531376385        0.46918834710628       -4.85903768366970
C            1.03663127757049        1.32028668694440       -3.82203950606518
C            1.64497769070146        1.16837705467366       -2.58936176115451
C            3.20011383689147       -1.75308118503450       -0.31262650793479
C            1.89745357140055       -2.29910567217957       -0.05783490967590
C            1.55613634967310       -3.24196005740294        0.87909707415660
C            0.17318194874626       -3.54625977600515        0.90213385038508
C           -0.54782830728374       -2.84557022831873       -0.00339325922408
S            0.45949219274852       -1.78834783816906       -0.92244751542553
C            4.47662488758135       -2.25693415328350       -0.28425994977072
C            4.79459911192671       -3.67121482950292       -0.07973003821053
C            3.94475101281303       -4.73796129370269       -0.18728928135984
C            4.53012174956755       -5.98942434438484        0.15269894483845
C            5.83560653230790       -5.90000702119348        0.49460222265537
S            6.37866408050905       -4.27086799478418        0.33811928123414
C            5.55564810526346       -1.23459140561399       -0.54296437792667
C            6.93995182195058       -1.44041182370278       -0.46802885252893
C            7.81186210193852       -0.40802039840685       -0.73877851298110
C            7.33836441672899        0.84607504952648       -1.08385571743709
C            5.97701934415117        1.07863349323045       -1.15357394998544
C            5.11803393245070        0.04509625693554       -0.88520171698549
H            3.63093353958730       -1.45869922019545       -3.26362656119418
H            2.55083506982601       -1.19749178328469       -5.47566220227285
H            0.89090687391984        0.58505384072204       -5.81979413897849
H            0.30735801277351        2.09936098590931       -3.97126180042824
H            1.39783862978856        1.81572602335416       -1.76268269640934
H            2.27114053746215       -3.67739254175617        1.55953944862212
H           -0.26150348308181       -4.26578149432385        1.58070381794099
H           -1.60847785954213       -2.92566893521522       -0.14928544401054
H            2.92002677132787       -4.64315409647998       -0.50882443619316
H            3.97966838063035       -6.91932828740370        0.14525640966082
H            6.46474903473013       -6.71864068664774        0.78923970935039
H            7.32364776617251       -2.40591066705756       -0.20326248236867
H            8.87435766519467       -0.57888896779306       -0.68195645865945
H            8.03105500742581        1.64467803133860       -1.29261614304809
H            5.58644191248787        2.05049332279379       -1.40359642976711
