34
 energy: -6.986235511785 gnorm: 0.000552926109 xtb: 6.5.0 (97a52f5)
O            0.78459453969974       -0.07061409356925       -0.37313002458613
P            2.28324925220268       -0.42139829398009       -0.18705035525721
C            3.26520946763724       -0.00322530625650       -1.62911140248748
C            2.63347667507806        0.43233030454887       -2.76842516859022
C            3.38323589976115        0.73722063201412       -3.89034986284332
C            4.75741934620419        0.60077669379717       -3.85586560247174
C            5.38395156463070        0.16114612718297       -2.70582956904122
C            4.63177097796652       -0.14444604212569       -1.58610134090429
C            2.53018531527084       -2.14826360966763        0.25884951895296
C            2.18428496691700       -3.27098903626132       -0.55902374376068
C            1.59454446940703       -3.20355048858010       -1.79013683164780
C            1.36849755123599       -4.47187006367962       -2.38510598064545
C            1.77963749878172       -5.50668547069047       -1.61686551206677
S            2.45860277276977       -4.94266866348754       -0.13270642538173
C            3.10359119454213       -2.13494677056897        1.47925027814873
C            3.36154558426725       -0.80010625537602        2.07699452488761
C            3.95389653616885       -0.56122898914220        3.32242041974046
C            4.14067574292521        0.73837736505581        3.74740795703491
C            3.74996013322225        1.80707920632467        2.95672936113634
C            3.16256958222955        1.58759644892784        1.72320129441911
C            2.97648132043105        0.29604069125820        1.30360324630413
H            1.55934403578919        0.53103182657425       -2.77288287059916
H            2.89534113562059        1.07858424519165       -4.78842942369176
H            5.34254870711198        0.83733592465154       -4.72933731097255
H            6.45590680895676        0.05452537080179       -2.68048251941657
H            5.10302456114275       -0.49483007955071       -0.68143985891279
H            1.32805697820043       -2.26840082206161       -2.25697356385390
H            0.90835629207005       -4.59456002999941       -3.35478443965254
H            1.70095236047386       -6.54523758915444       -1.87738574022484
H            3.36726347346320       -3.04574616405117        1.99747273181368
H            4.25746794541807       -1.39271356842029        3.93379605440611
H            4.59640713407098        0.92406916640596        4.70602199011137
H            3.90419716876486        2.81550016219388        3.30367432248281
H            2.85341300756552        2.40608717169253        1.09580584756909
