41
 energy: -8.440528389039 gnorm: 0.000988996262 xtb: 6.5.0 (97a52f5)
O            2.93950112327619       -0.74206361509930       -0.72972034083103
P            2.74668504495375       -0.01406711757434        0.62555343415887
C            4.09244933460726       -0.34063059527185        1.76593273938662
C            4.06934828646719        0.22442471437837        3.01865012019740
C            5.11342341112741       -0.01577766353842        3.89329555471772
C            6.16817322786722       -0.81733381978199        3.50202979664837
C            6.18298827312290       -1.37940848602453        2.24030838482419
C            5.13710503964816       -1.13824864930601        1.36767762179926
C            2.52856892987124        1.75178836388759        0.42007017693553
C            3.56571433912272        2.60161500980571       -0.12310595652674
C            3.56819019754850        4.04271568291347       -0.07367646601339
C            4.66607919641824        4.59931749676428       -0.61955876954675
S            5.74288441015906        3.38136177347145       -1.21523593267076
C            4.69225978371036        2.11025400204128       -0.71727781777645
C            1.28956681910496        2.03947322788457        0.90764066717206
C            0.70227228836560        3.40651978900489        0.90824253613369
C            0.27998453948212        4.08759875272655       -0.28735792195571
C           -0.19410373087675        5.32739728203095       -0.05856585818569
S           -0.14403891123981        5.70131021650331        1.63069277429426
C            0.52217904696315        4.16068905989362        2.02734729645876
C            0.52510767919642        0.86629589604629        1.45253943929232
C           -0.75386894079598        0.91723321583483        2.01703554406567
C           -1.33818536453759       -0.24083060882250        2.48833405192106
C           -0.67324931718769       -1.45352704933511        2.40895241525211
C            0.59151101338995       -1.52171826737236        1.85221207335263
C            1.16696328003725       -0.36892206945208        1.38389428308715
H            3.23899607293676        0.85015750933011        3.30546013677465
H            5.10359971510958        0.42236747006309        4.87766155158076
H            6.98172845308261       -1.00509559582987        4.18325811938362
H            7.00654371013428       -2.00380285792271        1.93562449795328
H            5.12851391822642       -1.56576785782364        0.37747027531305
H            2.76630631142007        4.61271019801561        0.36633688075233
H            4.86466264198398        5.65239586964547       -0.68339798675826
H            4.89446981254888        1.06716805629167       -0.85800706718437
H            0.35080208979269        3.63808038805352       -1.26607846107866
H           -0.55625148610033        6.00426587804911       -0.80895166169207
H            0.76881609622478        3.84639860820293        3.02249569442706
H           -1.26701202555744        1.86036591006386        2.07882910992340
H           -2.32274397081140       -0.20090623078874        2.92441686281659
H           -1.14225581926793       -2.34866324972417        2.78303004290760
H            1.12426548047214       -2.45477063724179        1.78254215868992
