80
 energy: -15.457872509223 gnorm: 0.002568962937 xtb: 6.5.0 (97a52f5)
O            3.02010068360074       -1.68578921145903       -1.86226371085245
P            2.71450127050721       -0.37077816907700       -1.09976313402475
C            1.11800156556964       -0.27646353837857       -0.48762888113741
C            1.51657085269164        2.85588835914740        0.46443428612703
C            1.64219066752175        7.18719204173987       -1.77711442418330
C            9.28567444238963        3.73483814671037       -0.12087971878621
C            6.48126728792230        1.35319682656654        6.54739777781498
C            2.23867349095553       -3.00574223494715        1.08564291456183
C            3.98677401406907       -0.08253718379871        0.18589940562559
C            4.64185518036040        1.02771263557595       -0.28192710256721
C            4.18534807653889        1.67435276224641       -1.54637412791248
C            4.72487662518548        2.81903432187146       -2.13993153186877
C            4.16730534372422        3.29870006022167       -3.30629931684254
C            3.08433904980219        2.65909368204837       -3.88948111194632
C            2.54301271867301        1.52369879098174       -3.31021055021011
C            3.09546208343184        1.04751975945204       -2.14972900253767
C            6.18905324540300        5.61712346481418        0.18931497595846
C            2.23960788590806       -0.65307980921859        3.78855818781525
C            2.34310339891418       -0.65493566899690        5.16052916791486
C            1.73131670328586        0.35480384840789        5.86385692152496
C            1.02865754874612        1.35176541459742        5.16998104221079
C            0.94803086276985        1.32623560008896        3.76959652413609
C            1.56277273580696        0.31125686167448        3.07744224537201
C            3.99316873277061        3.95258871233153        2.61605620007161
C            4.10244312569853        5.14060129672924        3.30187943480866
C            4.20974212157269        5.09798958377007        4.67116681895667
C            4.20310774558908        3.85603096957606        5.32484998911921
C            4.08735976375278        2.66480505229334        4.59386868273994
C            3.98036725938202        2.72050214708361        3.22691197207628
C            5.60659773645914        0.99198086076475        0.90309055388222
C            6.67076372000534        1.51104422462148        1.58833858917569
C            7.07720730297283        0.86740798735838        2.78456068039135
N            8.19287754553748        1.36658764992284        3.52318401045344
C            8.49066184006876        2.77092017507803        3.52342433713111
C            7.46913987181932        3.71535584519916        3.53187045248281
C            7.75281743961702        5.06109590344976        3.53051215744730
C            9.06349763115488        5.49289023203865        3.51993906768866
C           10.09053763367818        4.56992458702122        3.51056890515298
C            9.80813266956040        3.22274814614285        3.51203496035994
C            9.08384256644047        0.45511109646158        4.18790862611752
C            9.36859740183547       -0.79090358957614        3.63392244742135
C           10.22346388309005       -1.66452785890870        4.26710973553787
C           10.81186109973085       -1.31058530816056        5.46517362990603
C           10.54383910153248       -0.07782674542152        6.02610267605638
C            9.69150128247034        0.79823880880725        5.39311538465497
C            6.39005772600328       -0.26355626915756        3.22324826803132
C            5.30517229347312       -0.79229340194285        2.52646034526783
C            4.91884749160731       -0.15395027268947        1.36505293790802
H            2.43024114687089        2.37792131366913        0.34337937255645
H            2.63197059142794        7.49378418979749       -1.73269802837454
H            9.27023557702548        3.83290150681239        0.91157994158057
H            6.96078989733520        1.38680923681864        5.62711082436290
H            2.24240741069899       -2.31149892187239        1.85682977012166
H            5.56233795203340        3.31196221744053       -1.67864534376481
H            4.57799994554555        4.18088465586172       -3.76888785835817
H            2.66079078481121        3.04700196149994       -4.80139519554834
H            1.70405057710575        1.01513481714545       -3.75324129340777
H            2.89422088378230       -1.43599082658481        5.66227047491297
H            1.79342729860114        0.38364976474543        6.93861278135662
H            0.55290812924159        2.14761421378969        5.71732003947156
H            0.41751919741745        2.10074726940423        3.24203816338391
H            1.52741092388485        0.26528507089246        2.00012335971261
H            4.10368520063279        6.07842286743877        2.76696682612974
H            4.29678862775247        6.00952442005767        5.23792080306934
H            4.28554322514297        3.81620330964639        6.39735691092675
H            4.07421706530438        1.71436728842040        5.09941422191051
H            3.89665580561038        1.82196749415753        2.63710252497700
H            7.19632227433867        2.36933368630744        1.21651322121064
H            6.44829482396208        3.37996977537711        3.53948492741682
H            6.94928284737806        5.77847368766443        3.53727970601650
H            9.28404021375792        6.54771214167657        3.51743237587699
H           11.11476336214438        4.90497091981581        3.49881078640750
H           10.60483723478493        2.50025712574205        3.49124457045074
H            8.91851999880075       -1.05661927969375        2.69345877640862
H           10.43494461856388       -2.62476347672395        3.82603843375344
H           11.48084573914202       -1.99515350740956        5.96030787879214
H           11.00336506570684        0.19950535952605        6.96060835940519
H            9.48063669182414        1.75918851225484        5.82856192951684
H            6.70633822320271       -0.73203426661517        4.13801288891401
H            4.77382041667942       -1.65916038555242        2.87520717628325
