57
 energy: -11.211853688223 gnorm: 0.000619195675 xtb: 6.5.0 (97a52f5)
C            0.92950349053065       -0.49624822409938       -0.01564398096973
C            2.35413783314582        0.00880761202429        0.28115170863975
C            2.28420276706925        1.25887093517214        1.17764392516630
C            3.10825602793805       -1.09615616648595        1.04632720174342
C            3.05177953101339        0.37119016808480       -1.03963050863768
C            4.26123267202945       -0.24229589192306       -1.43942057701521
C            4.88692642187896        0.07766922271350       -2.61519641528054
C            4.30886247485399        1.04414046029580       -3.44440516917151
C            3.10416407038178        1.66962539727718       -3.06365904301575
C            2.48509801149013        1.32584379268766       -1.85773268812352
N            2.74925059601384        2.57592304395712       -4.05560170251438
C            3.70961382993049        2.53283481643258       -5.05279626048322
C            3.80886326973067        3.25826894874941       -6.29167183851068
N            2.97315438880862        4.21126016752832       -6.85036029970348
C            3.49895703518789        4.59139228230361       -8.07930526833083
C            3.04411879991799        5.49868957708624       -9.04139611891759
C            3.76012733523153        5.68614681692662      -10.20499081352696
C            3.23790243139918        6.68333199268056      -11.25176173476333
C            3.20095343139693        8.09386164017298      -10.63514910676024
C            4.13356027216361        6.72367021020897      -12.50539350621384
C            1.81876843421782        6.27065483978502      -11.68680993123795
C            4.95531915359630        4.95599385209531      -10.39855074847320
C            5.42244299919804        4.06333795287990       -9.47040858279768
C            4.69148408288795        3.87073464378702       -8.29381407653893
C            4.88331734235973        3.03103124983193       -7.15744971727640
C            5.92507051863042        2.07005300348918       -6.82959561746382
N            6.98738487423975        1.76113316402309       -7.53002392725701
S            7.82622572686688        0.61723919833163       -6.67987712706841
N            6.81654421859510        0.50300910622454       -5.37515743006181
C            5.82490982906822        1.33499702147457       -5.57218586642991
C            4.68725313276866        1.59574149573756       -4.70372456109434
H            0.41820013397207       -0.78198046806906        0.90300760461975
H            0.95855822116728       -1.36656172360250       -0.67031125425092
H            0.33011995093951        0.27036806455434       -0.50414735012208
H            1.80837511242225        1.02903987984656        2.13041858753808
H            1.71209597082473        2.05463055384222        0.70310467539294
H            3.28337592774956        1.64152133269333        1.38296188754145
H            2.59145806679504       -1.34528353345622        1.97268802673919
H            4.11553666819465       -0.77507876075122        1.30903499984098
H            3.17681062787702       -2.00720260355712        0.45299492292345
H            4.71001198953035       -0.98500312308493       -0.80486055590752
H            5.80535837913535       -0.39420193403760       -2.91403543031451
H            1.56966226949037        1.81523082009754       -1.58359465818170
H            1.92519302131583        3.17380676284877       -4.04751822042796
H            2.10425472927190        4.55423074411308       -6.44543839905681
H            2.13556204767411        6.04063337012360       -8.85827825904972
H            4.19492792627652        8.39689749466004      -10.30776129264742
H            2.53854967080140        8.13079272052803       -9.77154744651899
H            2.84606163651286        8.82664054883681      -11.35917566320420
H            5.14460201949995        7.04398893790101      -12.25641577575209
H            3.73870713325372        7.42587407538438      -13.23902319470140
H            4.18555566999373        5.74520247107866      -12.98163348836929
H            1.12443328591505        6.29109007109188      -10.84836673371255
H            1.82025177877644        5.26098345193187      -12.09609608903669
H            1.43448512869290        6.94432271237415      -12.45199054071518
H            5.52009844343842        5.10006622094023      -11.30185111583269
H            6.32961918796096        3.50797958423741       -9.62596545469873
