80
 energy: -16.992377115779 gnorm: 0.000631085538 xtb: 6.5.0 (97a52f5)
O            3.52648898243774       -1.12220818023553        3.77397829775788
P            3.54357832391382       -0.53620035609668        2.33836341151371
C            2.44913697649232       -1.39460620886288        1.20698301597738
C            1.91261401927956       -2.61164087448970        1.54940273523270
C            1.07022888218566       -3.25820308201499        0.66231957498261
C            0.77714910505195       -2.67728310330859       -0.55679213643269
C            1.32327748136447       -1.45343962580004       -0.89281895694669
C            2.16555856468729       -0.80943677131653       -0.00463640590244
C            3.16525197174174        1.23003173251421        2.27864305540880
C            4.23232862896900        1.81135021161916        1.66955545243684
C            5.37556146904067        0.92905380409476        1.33725910208627
C            6.58002115673811        1.33206068728946        0.74981548836980
C            7.55008895085909        0.38932938422257        0.47835258240528
C            7.34424152529302       -0.94785695139839        0.78146005775222
C            6.15798615700542       -1.36084325356275        1.36421276741135
C            5.19514913244100       -0.42382347706229        1.63544497107010
Si           3.61796046970382        3.46592544963050        1.09409227826247
C            3.31903558712940        3.41835820436601       -0.74070992345959
C            2.43908601199732        4.30663004576412       -1.31981180963700
C            2.16478086214201        4.22624703202486       -2.67102223489354
C            2.77252461058063        3.25368398651549       -3.44024994911432
C            3.65373298481980        2.36329625462162       -2.85949249588459
C            3.92493027158385        2.44760920954515       -1.50859841682040
C            4.65242047691638        4.88413261612065        1.70998400349412
C            4.86542663641893        5.03804294568853        3.06235094282526
C            5.63142314096822        6.09001467125840        3.52556275721451
C            6.18273097231199        6.98613994775811        2.63107082267463
C            5.96833427017000        6.83095031213823        1.27572042026991
C            5.20193835900789        5.77772526540834        0.81662986229488
C            1.99764826421850        3.33170431587464        1.96605992180132
C            0.91331417755733        4.16122508919238        2.03364513606353
C           -0.28378087280292        3.70563470619755        2.59120996275266
N           -1.43456725493605        4.55253274881587        2.61039639164649
C           -1.60471656470412        5.54463731024174        1.58422940805296
C           -1.27083680832463        5.26615127617053        0.26044753475699
C           -1.41318909986283        6.22423976810412       -0.71758144440470
C           -1.89569073363663        7.47731361237758       -0.39375212709415
C           -2.23689478121336        7.76754310750158        0.91304706957695
C           -2.09410021428702        6.81134005195714        1.89335329361948
C           -2.41791124288735        4.43030343325914        3.64995267851862
C           -2.03936186111580        4.16520903533246        4.96393555238835
C           -2.98470837388860        4.05406152399075        5.95867844458681
C           -4.32471928260312        4.20763696398975        5.66076134069513
C           -4.71624990849341        4.47437936184344        4.36320262920941
C           -3.77266543335554        4.58576226779017        3.36678867139241
C           -0.33974122065358        2.39783510348472        3.08789951123476
C            0.75012562463870        1.56271601377721        3.02657318721062
C            1.94106758498997        2.02245732360502        2.45910519798678
H            2.15196328757549       -3.04555465725546        2.50722310621371
H            0.64279826065489       -4.21243726328197        0.92314237987916
H            0.12004938693029       -3.17996265834912       -1.24736549760283
H            1.09385844914429       -1.00031127355335       -1.84319197133312
H            2.59976175929149        0.14744145488131       -0.24924347802890
H            6.73389169742438        2.37152641486104        0.51863527438031
H            8.47814305816321        0.69620149935252        0.02469672573719
H            8.11164121130675       -1.67171136686090        0.56146433345780
H            5.98147957908932       -2.39603512886235        1.60205377154095
H            1.96241932948858        5.05302759435939       -0.70723997488057
H            1.47460920760118        4.91985195113796       -3.12279203480553
H            2.55792313630036        3.18860860426322       -4.49440694758002
H            4.12771519715004        1.60261163189095       -3.45809086165443
H            4.60856574417999        1.75903900145326       -1.04316871067373
H            4.42797456377425        4.33181869136634        3.74794653025812
H            5.79798428390561        6.21068874128007        4.58353745104172
H            6.78058647310628        7.80745657104491        2.99100076570379
H            6.39712777202796        7.53055770013149        0.57691739397492
H            5.02485834360293        5.64493421721633       -0.23723894933242
H            0.98078953797823        5.16288039439992        1.65102022257977
H           -0.90194895370153        4.28620001561663        0.01244642180339
H           -1.14761015166284        5.99625636998838       -1.73682812879607
H           -2.00568489258483        8.22725912239473       -1.15991688950136
H           -2.61245350298925        8.74562061153530        1.16581549491811
H           -2.34802714169070        7.03477631237784        2.91473000041376
H           -0.99330392855977        4.05959861062785        5.19259172835239
H           -2.67849228953738        3.84906567064849        6.97145876148450
H           -5.06404029036616        4.12042389729821        6.44008354388208
H           -5.76170445060563        4.59423106234422        4.13054296995752
H           -4.07181550925018        4.78731578900826        2.35309673750934
H           -1.26717071793980        2.04228519422954        3.50084428335839
H            0.69858357030643        0.55398233472738        3.39692391736557
