75
 energy: -16.394333926632 gnorm: 0.000924840392 xtb: 6.5.0 (97a52f5)
O           -0.66920526930863       -3.23088744125216       -0.99058127594461
P           -0.16755514841348       -2.24677224902075        0.09690517222747
C            0.45383116032308       -3.08792895942515        1.55403758280181
C            0.35910435841317       -2.48876265624749        2.78758690349387
C            0.88083688335631       -3.12721673108409        3.89767150905890
C            1.49668952042455       -4.35568318411699        3.75841718723674
C            1.59325011093572       -4.94712347522649        2.51396335106092
C            1.06969449614553       -4.30663196597131        1.40498234683664
C            1.08893281873625       -1.13028819888096       -0.51517518643486
C            2.35230307252363       -1.36611804896453       -0.97086564949924
C            3.16688901417422       -0.28459168084370       -1.32326181133148
N            4.52992851643424       -0.50985222259577       -1.73157091226873
C            5.44004315622327       -1.17467062882949       -0.85804738227805
C            5.07945373974381       -1.51606290059485        0.43609409793875
C            5.96302887600216       -2.16397653410025        1.27735064921818
C            7.22944940223720       -2.47407545705575        0.83454681064185
C            7.61555709789431       -2.12855929735499       -0.44495526931595
C            6.74207383443545       -1.47513385867616       -1.30534890899607
O            7.18529125242508       -1.12882988769697       -2.58158177659992
C            6.29541579347398       -0.46866394958365       -3.42917987582647
C            6.71761040141197       -0.12475084555661       -4.70725943852411
C            5.86751590813919        0.50887154040059       -5.59103468939931
C            4.57748175942422        0.80428666022784       -5.21133296798437
C            4.13911928698968        0.47278642353521       -3.94381425679282
C            4.97905011649649       -0.15132818897727       -3.03576613556634
C            2.64737856389498        1.01344200478102       -1.21451485684767
C            1.36935520165091        1.24066311011510       -0.75851844056943
C            0.56042805772963        0.15667976474995       -0.38652422677058
C           -0.81835221087244        0.22444166031528        0.18173627205389
C           -1.56520119091266        1.38650500150064        0.42345738298705
C           -2.81633299127073        1.28804077190200        0.98534847124678
C           -3.37002187602319        0.04647635283958        1.32894712165264
N           -4.67142093653452       -0.03660870084919        1.94229387502673
C           -5.74157657818137       -0.71712365476686        1.29259857980935
C           -5.58367787769051       -1.27285314786759        0.03327750886549
C           -6.62768639107672       -1.92321476614525       -0.59540037087855
C           -7.85075530808298       -2.02144065417226        0.02871767262495
C           -8.03340475965818       -1.46474759496772        1.27846308965147
C           -6.99712063568066       -0.80500685466756        1.92674415081982
O           -7.23592115147821       -0.24394875827626        3.18148390349554
C           -6.18106833951993        0.40725015067593        3.82052577463949
C           -6.39220868514349        0.94973720497534        5.08194367804552
C           -5.37313429114771        1.58415298347627        5.76341093795091
C           -4.12298673284370        1.68209188617985        5.19493313762260
C           -3.89387035461777        1.15177417287836        3.93988192886033
C           -4.90535207608932        0.52230578625779        3.23251967744103
C           -2.62788913343101       -1.11372762448491        1.08092468887667
C           -1.38900609205876       -1.00651694095263        0.51987929602076
H           -0.11790284603844       -1.52592915704702        2.87734664808244
H            0.80865440478488       -2.66524420854432        4.86847589475806
H            1.90484743977139       -4.85305630807515        4.62275098284516
H            2.07675364806820       -5.90401349762333        2.40571139521496
H            1.13737363274616       -4.74956401124996        0.42364434757404
H            2.72656538506325       -2.37129921228977       -1.04309585927992
H            4.09640611809492       -1.26294386290015        0.79000717718143
H            5.66074826794893       -2.42610351252046        2.27787007487606
H            7.92100996074531       -2.98086932120632        1.48730745280798
H            8.60500978759230       -2.35765892173968       -0.79851831986564
H            7.72425044492332       -0.36976552965174       -4.99572049994025
H            6.21208229171003        0.76705010959329       -6.57892421159703
H            3.90969464484212        1.29217532858925       -5.90204493466386
H            3.12643144649508        0.69054558431120       -3.65626250944872
H            3.28378340765006        1.84192349082881       -1.47136012568001
H            0.99108162103129        2.24303956246011       -0.66800892135012
H           -1.15335318009438        2.34701231897135        0.17082542957968
H           -3.39826334647205        2.17453866362312        1.16685757785986
H           -4.63271370684828       -1.18787393844441       -0.46061700555807
H           -6.48417281337110       -2.35279100972643       -1.57299472505363
H           -8.66661895961806       -2.52886006496927       -0.45905671797102
H           -8.98610548040566       -1.52943820220080        1.77277906189783
H           -7.37008005478263        0.85868892024122        5.52000486501377
H           -5.55447102172916        1.99607252790602        6.74260050511202
H           -3.32426093717150        2.17182760768285        5.72714016743329
H           -2.91369131008290        1.21809058146233        3.50364782990731
H           -3.02516321455746       -2.07699235301258        1.34514509384195
