75
 energy: -16.626647916092 gnorm: 0.000711089314 xtb: 6.5.0 (97a52f5)
O           -0.93139758427674       -2.52039761519455       -1.99808579491544
P           -0.63664796966305       -1.64753000394431       -0.75370850405389
C           -0.61748558980925       -2.58345017367248        0.79192094483933
C           -1.51441001250663       -2.29926866436038        1.80990427348573
C           -1.49602222361678       -3.04597809753292        2.98642288366462
C           -0.56334220189828       -4.06281755015377        3.13837997534191
C            0.33341872450581       -4.32908129350463        2.12009620348272
C            0.30318469317166       -3.59211334206866        0.94681553081027
C            0.83322707813740       -0.63604377292278       -0.91605090929000
C            2.13074970149846       -0.96702351740591       -1.17316987510005
C            3.10180574960652        0.04032970326032       -1.20079557526872
N            4.48827681839902       -0.29599498606770       -1.42730893474415
C            5.16054158184997       -1.06876436324488       -0.42183297496970
C            4.52569198918030       -1.36716958058222        0.77905069983183
C            5.15070430799332       -2.11915403036035        1.75791552324898
C            6.43225737565082       -2.58641781716171        1.56047860811510
C            7.09187735066852       -2.29340752128885        0.37943979555834
C            6.46219838786025       -1.54454562112947       -0.58719945204720
S            7.31261469531618       -1.21243288972833       -1.98484309545621
C            6.38795755621285       -0.28781378383776       -3.02322908252951
C            6.95151788199465        0.07484052147603       -4.22424123322078
C            6.22239800533301        0.83122476707453       -5.12515341645404
C            4.93491004520022        1.20921467922204       -4.81065621484758
C            4.37710067471646        0.84024213929799       -3.59930589102723
C            5.09065882228157        0.08985214498674       -2.67141287198001
C            2.70748910719049        1.36611168905306       -0.96787915334628
C            1.39537086377165        1.69142877132743       -0.71501186397971
C            0.42314093372438        0.68160559054514       -0.68380310368640
C           -1.03028937692897        0.85255942675709       -0.38367272274978
C           -1.66203902581629        1.99032993729417        0.14543431774336
C           -2.94840380659495        1.89034246071494        0.63089661335199
C           -3.66952854855824        0.68231694634682        0.58135150901502
N           -4.71518191174981        0.40422170397638        1.52756070833579
C           -5.32488597054611       -0.89856163348103        1.40468409801230
C           -6.36722298202932       -1.14813326810765        0.52311586463598
C           -6.79984175265980       -2.44473324218388        0.30267885553966
C           -6.19045308058069       -3.50442776602017        0.94552658900402
C           -5.14445444431690       -3.27558526901761        1.82167864767521
C           -4.72728732386286       -1.98683072527490        2.04591463266022
S           -3.43248261937303       -1.60572857050249        3.12066410858202
C           -3.68125574774703       -0.00232842542555        3.70435429650515
C           -3.19759760015837        0.42101409246199        4.91764792342671
C           -3.47225668204248        1.70890853316066        5.34281613200938
C           -4.22575552356906        2.55385955072936        4.55169993637220
C           -4.69581836826593        2.12889722705921        3.32081584586523
C           -4.42163653365832        0.84375392769719        2.87369862803351
C           -3.09444160368352       -0.39681919982735       -0.11042165981132
C           -1.79471639311026       -0.30910512633981       -0.52240334790821
H           -2.27660426860423       -1.50220645104995        1.73434052803988
H           -2.25997656066999       -2.80581943883563        3.75374063604349
H           -0.54336762828685       -4.64303874897714        4.04546489607839
H            1.05748231636978       -5.11865974662459        2.23640601470254
H            0.99370947504160       -3.80513117566384        0.14618721663750
H            2.41034313229786       -1.99054641271270       -1.34527141418628
H            3.52981012070666       -0.99892982372435        0.94843384423656
H            4.63347950196193       -2.34001681170751        2.67697211668806
H            6.92047477662781       -3.17216605715946        2.32175987861785
H            8.09680340519444       -2.63826793267103        0.19753810185503
H            7.95759901144872       -0.24371516004389       -4.44388899776704
H            6.65839112319610        1.11823880492108       -6.06775309060068
H            4.35955317582896        1.79220745088396       -5.51062019132068
H            3.36776668610514        1.13109856563186       -3.37137767974571
H            3.46230470962738        2.13267143936072       -0.97680781631207
H            1.10794896969612        2.71192973521664       -0.53553065208860
H           -1.10639138345672        2.90463644704830        0.25288917255732
H           -3.39124864739346        2.73215004681295        1.13277476184533
H           -6.81671522570667       -0.32243805623894        0.00007163886838
H           -7.60973039163857       -2.62833220202141       -0.38360034162388
H           -6.52787552513680       -4.51158025049929        0.76386749556122
H           -4.65220264518329       -4.08416048583724        2.33340793769517
H           -2.62814427434602       -0.26203440079712        5.52368778083123
H           -3.10305874797366        2.04927781905877        6.29621704075989
H           -4.44089438099575        3.55401136231452        4.88952546495577
H           -5.26555984491121        2.79079979431025        2.69246371128711
H           -3.59002434709256       -1.35126427321435       -0.13137552139320
