51
 energy: -11.319096130162 gnorm: 0.000732084255 xtb: 6.5.0 (97a52f5)
O            2.12874936771306       -0.24104357725600       -0.68639217605544
P            2.92235310750109       -1.06492654609205        0.35662558274426
C            2.06355596645776       -1.22358594891644        1.91934810796149
C            2.76481038443032       -1.62000243740191        3.03297585917011
C            2.10472089344491       -1.75764178218309        4.24084434815612
C            0.74913225280534       -1.50160605033294        4.31658406070189
C            0.05189381115248       -1.10879274646964        3.19035247616627
C            0.71527162551469       -0.96990139255130        1.98402481909548
C            4.61113231716104       -0.40680890354336        0.61804135420193
C            5.18406218890873        0.71803683001241        1.14595805732513
C            6.57480618699427        0.78078169061857        1.23472295087181
C            7.37949420711899       -0.24575736333207        0.77873382455878
C            6.83069459766091       -1.39091564878967        0.17689444070771
C            7.54816993553588       -2.56309692041462       -0.35430959735696
C            8.95405360057068       -2.48785173925824       -0.72141669003830
C            9.59065954235449       -1.25515677968880       -0.95380900322674
C           10.91097745077795       -1.18242218300724       -1.30345639257505
C           11.64899939334787       -2.34458215346234       -1.46292121011120
C           11.04656221244816       -3.56356616929880       -1.30533027784041
C            9.69000438405584       -3.67202731164390       -0.95730951620033
C            9.02477295446106       -4.96189704135502       -0.86846782526737
C            9.73460142601825       -6.17003653890957       -0.96484599895318
C            9.10276726330567       -7.37999158868004       -0.86160097838024
C            7.73554290615714       -7.43043978362442       -0.64092393171612
C            7.01661347825805       -6.27066631416974       -0.54672617928456
C            7.62503890807429       -5.01234577229793       -0.68550804929926
C            6.86561988808252       -3.78177396144192       -0.55191929542703
C            5.40939414278154       -3.77301917880666       -0.58524269432401
C            4.38988787138429       -4.65184869791317       -0.95399281555274
C            3.14911971595014       -4.01685884110485       -0.75092889345516
C            3.37467090016080       -2.74350951849162       -0.27709612784631
N            4.74262100037732       -2.61024333523824       -0.22294301262952
C            5.43243759096358       -1.43455783280626        0.17149454061534
H            3.82173425600714       -1.81991524406893        2.95266398601756
H            2.64745706963096       -2.06589862517283        5.11921880901064
H            0.23361850237424       -1.61116669475943        5.25662971475045
H           -1.00584429844830       -0.91192791540424        3.25042973222265
H            0.19106434743269       -0.66401771013246        1.09229592116366
H            4.56333334344752        1.51839072934250        1.51002843024415
H            7.03042807414321        1.64644376706821        1.68652393606184
H            8.43992031533294       -0.19482404193547        0.94910070357028
H            9.01086058744216       -0.35056576540283       -0.92905530785096
H           11.37499471206175       -0.22410954523232       -1.47076068045479
H           12.68993300963630       -2.28624443883694       -1.73653251015267
H           11.62758260518658       -4.45089575591963       -1.47587883442714
H           10.79939112767612       -6.15504685401341       -1.10619400318049
H            9.66881930784891       -8.29438358334697       -0.93422086505289
H            7.24385842442517       -8.38310576378897       -0.52977476455001
H            5.97430603806458       -6.32506302223938       -0.29739902811211
H            4.51303840200803       -5.62658253187260       -1.39379578716292
H            2.17830270383214       -4.44437146647160       -0.93977920880780
