39
 energy: -8.547187747786 gnorm: 0.000872545096 xtb: 6.5.0 (97a52f5)
O            1.94315136093604       -0.41310651725881       -0.43320696202720
P            2.91397542837904       -1.15064232440545        0.52032516763823
C            2.31776141159250       -1.20937616502180        2.20705077608017
C            3.19165022651222       -1.51443152231205        3.22295228837098
C            2.72918540696313       -1.57138521674415        4.52535573283323
C            1.39605772629097       -1.32690469166931        4.79297694803720
C            0.52428182237819       -1.02670541552310        3.76418078943859
C            0.98984487407855       -0.96929182271218        2.46243091504143
C            4.60403735633407       -0.44472914328082        0.46188996838845
C            5.20867336144417        0.75655988702781        0.72263095202273
C            6.58692374156193        0.86643177014571        0.54858027256808
C            7.35463016145152       -0.20319721153362        0.12247844332378
C            6.76891453384407       -1.44421918853027       -0.15193902097530
C            7.45143566372191       -2.66597713792939       -0.61428723750444
C            8.83218385331696       -2.68970494698642       -0.82293235180675
C            9.46734463196285       -3.82825425868257       -1.25646221358517
C            8.74493536717675       -4.98457536852710       -1.49775193168893
C            7.38681056120908       -5.00011194822751       -1.30338603103131
C            6.71681488878105       -3.85891393781403       -0.86295791350951
C            5.27660411300226       -3.86829066284562       -0.65458403190990
C            4.25215474361976       -4.79468544331499       -0.78794111433284
C            3.03955358852924       -4.17092036829562       -0.42264346262144
C            3.29988696181944       -2.86557391937911       -0.06604702205601
N            4.65928701706091       -2.70936431602493       -0.21434506391878
C            5.38501964526561       -1.50874600145635        0.03594169690930
H            4.22792031960583       -1.70686219874505        2.99413771037437
H            3.40786423132857       -1.80713594084600        5.32842055781387
H            1.03469462167830       -1.37202376094405        5.80716322042813
H           -0.51599033883859       -0.83931376094946        3.97372733995958
H            0.32651260394968       -0.73880644587163        1.64349258342190
H            4.61858181944655        1.59350651039255        1.05393784858699
H            7.06494295027169        1.81080202206835        0.75029759834537
H            8.41528629875982       -0.07911795170323       -0.00014762875374
H            9.40911275844702       -1.80092680515089       -0.64097487608442
H           10.53407848298558       -3.82256278696800       -1.41030209076980
H            9.25080349197638       -5.87310730629260       -1.83856774971733
H            6.82369777413580       -5.89794773450151       -1.48967975556090
H            4.36744700917342       -5.81503678416372       -1.11253280954987
H            2.06678952982001       -4.63377118508626       -0.41065154222221
