36
 energy: -7.596084787166 gnorm: 0.000918639212 xtb: 6.5.0 (97a52f5)
O            3.31421672126938       -0.53243890889765       -0.82946076555070
P            2.90488632576018        0.18431260210477        0.48260276905342
C            4.14750378910840        0.04123685526230        1.76619641497248
C            3.96405883844973        0.69458740492109        2.96147613283316
C            4.92208353507120        0.58270844595439        3.95288003349892
C            6.05082535881424       -0.18335977896844        3.73533906424437
C            6.22511426234468       -0.83791349989752        2.53140656992012
C            5.26556331394073       -0.72392728278015        1.54120209730567
C            2.44834084536221        1.90529673563408        0.22094338228901
C            3.14797298801366        2.98611261235974       -0.24980988895075
C            2.50694229833469        4.20978264294175       -0.32959364471640
C            1.18307842543378        4.33482649180289        0.05963357663026
C            0.47991307369670        3.24515358195387        0.53206583408269
C            1.11432392263462        2.00397289464957        0.61790742549033
C            0.50170492802306        0.73658893486838        1.10552218414160
S           -1.10099411017243        0.34624983000112        1.72342585930257
C           -0.65571123965331       -1.33262206195744        1.98675406614345
C           -1.41995809663094       -2.37355361442672        2.49928927645169
C           -0.86039037777910       -3.62235714119333        2.62005707563747
C            0.46140848069169       -3.85313945300987        2.23481430998057
C            1.22969063481040       -2.83782625736900        1.72769639822588
C            0.67063497924126       -1.55776799693700        1.59842865303712
C            1.29937141114784       -0.36846030812477        1.09857138440766
H            3.07601533916417        1.28746481099184        3.11401169855421
H            4.78774050235368        1.09335795496115        4.89218907334873
H            6.79817798079165       -0.26980285203070        4.50689767470247
H            7.10588725941854       -1.43523771358291        2.36257872670799
H            5.38101749527159       -1.22517746499962        0.59309441340750
H            4.17611321562124        2.87112877603590       -0.54806262861102
H            3.04132711798042        5.07007568232246       -0.69759876873627
H            0.69631518557055        5.29378017266506       -0.00797973352799
H           -0.54802862699242        3.33559528584017        0.83541786549860
H           -2.43808309045845       -2.18754766791083        2.79399158547792
H           -1.44727973513040       -4.43430136100441        3.01685694197143
H            0.88035984887526       -4.84065930655075        2.33694277494236
H            2.24902719962676       -3.00324904562415        1.42662216783140
