108
 energy: -20.567668043300 gnorm: 0.000813945200 xtb: 6.5.0 (97a52f5)
C           -0.71033808522233       -0.59667562955984        2.32056976376058
C            0.81206608480308       -0.39706145360725        2.44189296351600
C            1.32177329977686        0.43333137636933        1.24915527820802
C            1.09630182206455        0.38833551885107        3.73717913299766
C            1.50672965859653       -1.76803637132312        2.43882006187796
C            2.31927371940570       -2.19991697412700        3.49779104061697
C            2.94933047016704       -3.42378457290506        3.49122150989662
C            2.78003833034019       -4.28015982222991        2.40411949510911
C            1.97776586734611       -3.84694430148257        1.33187161820457
C            1.34668949796561       -2.60665630783677        1.35130990033206
C            2.01481430194824       -4.87348618374104        0.31576761276137
C            1.43535555022536       -4.98420421669897       -0.94061723375163
C            1.67969782974828       -6.11281776475553       -1.72059467562508
C            1.02042386501834       -6.21134032418566       -3.10525532966464
C           -0.51047454817395       -6.20545413652520       -2.93993393088793
C            1.45416544588995       -5.00871697205175       -3.96450771073791
C            1.42475940240038       -7.50069522443096       -3.84251689948769
C            2.51222038086768       -7.11387390759513       -1.21607740827136
C            3.10081146032592       -7.02565137125135        0.03731844674650
C            2.83975153502963       -5.89437945606395        0.80789833886881
N            3.29775482056508       -5.57544493094965        2.08918056516399
C            4.07824503245823       -6.51121329474174        2.81019354604173
C            4.47583573039140       -6.28846375802057        4.12022471048985
C            5.27669939662896       -7.19148579606789        4.80972254053693
C            5.70277634729683       -6.91886473949040        6.19881082219596
C            4.84831390790094       -6.28407897112401        7.09997855215298
C            5.24379779532584       -6.03790532584324        8.39532930442684
C            6.50236234948842       -6.41542101206041        8.83315411144408
F            6.89115364233957       -6.17071168979654       10.11324705952235
C            7.35901151048901       -7.04553707599118        7.94575190235480
C            6.96803001541512       -7.29431963154833        6.64950614703867
C            5.66473398956039       -8.36377506349594        4.16339580127578
C            5.25060807798370       -8.66003011493280        2.87849742637604
C            4.46570802693936       -7.71487091931824        2.19012827062302
B            4.05409615283261       -7.99478690153899        0.74542098139399
C            4.70551578204164       -9.18718999538358       -0.01161174111587
C            4.67808887397812       -9.51900939214988       -1.32264101489280
C            4.88329453921331      -10.91906010100062       -1.75809555543469
C            3.79547180506247      -11.58741118054875       -2.66269573422664
C            4.28482700124704      -12.94977349047150       -3.18302868317468
C            2.51455770304811      -11.78085978103376       -1.83633896624280
C            3.50479904339019      -10.67514756165988       -3.86475883557704
C            5.61450083825234      -11.79752956262843       -0.77747674685577
C            5.82185230267829      -11.35404946596812        0.48155146819032
C            6.39964432057616      -11.97659204027672        1.66443457668116
C            6.97931705104642      -13.22406888722855        1.84582890950094
C            7.39780505787245      -13.60993969740788        3.10990875934045
C            8.05280182458796      -14.97486234674355        3.37404238793506
C            9.45111371831088      -14.76089634396193        3.98365567521898
C            7.17775978849133      -15.77974595601598        4.35272372085966
C            8.21057727624639      -15.79275258156446        2.07700748661794
C            7.19529622976107      -12.72470728948305        4.17327054316770
C            6.61742932789927      -11.48434307931647        4.00261811591411
C            6.22861523644589      -11.07992514939607        2.73066215398675
N            5.60393653976444       -9.87760529537981        2.22600059975140
C            5.36305168107115      -10.06151232308399        0.90198664580217
H           -1.23139282245996        0.36013734101839        2.33808616903696
H           -1.08624044071688       -1.20074164584099        3.14577434149437
H           -0.97154045773051       -1.10010405474695        1.39084159655701
H            0.85877936046307        1.41960045905477        1.23439044251199
H            1.09588339455559       -0.05423803045377        0.30183555633286
H            2.40143842083699        0.56814773440032        1.30751450130128
H            0.59045070482951        1.35338788236040        3.72200733233437
H            2.16250648154635        0.57879751308426        3.85567458279962
H            0.74099076288801       -0.15548186905900        4.61191906144648
H            2.46522247562786       -1.55338911896947        4.34468895675480
H            3.59097497848723       -3.68999589593550        4.30797174773971
H            0.74616440792511       -2.30944408158136        0.51176652721300
H            0.80181203754628       -4.19473242994962       -1.29938810454368
H           -0.85399833290396       -5.28629467459332       -2.46739247731503
H           -0.83365118780436       -7.04160457461183       -2.32055555650129
H           -1.00721183368212       -6.28921792754374       -3.90612066273696
H            1.13871563086473       -4.06689164796484       -3.51807246610153
H            1.01905458274277       -5.06563452806584       -4.96186904709961
H            2.53828712966365       -4.98295304136272       -4.07052187836659
H            1.12101463583344       -8.38409364029852       -3.28178179022800
H            2.50216741761507       -7.53522109483656       -3.99986225965516
H            0.94781376833029       -7.55308426495916       -4.82094666152584
H            2.71525357809769       -7.98890583205986       -1.80213885882906
H            4.16639345381417       -5.39875777234189        4.62535294491728
H            3.86065464048594       -6.00194108556168        6.77844517313399
H            4.58055052462134       -5.55191904605331        9.08897793769096
H            8.33646916382777       -7.33462650224470        8.28959685001266
H            7.65030269046100       -7.76982363355854        5.96626656418446
H            6.31587213941073       -9.03646705004965        4.68032210534146
H            5.54297162206251       -9.93906066729791       -2.09427796846083
H            4.41936833558899      -13.65962007869052       -2.36779198006290
H            5.23567035374581      -12.84714909925910       -3.70544003144485
H            3.56483756841605      -13.38106614543942       -3.87807622699859
H            2.70556733776967      -12.41234011036820       -0.96906498554169
H            1.73163773681803      -12.25024219477353       -2.43117710091821
H            2.13816427261665      -10.82380743440896       -1.47606725375552
H            4.39966500254720      -10.53355879185301       -4.47063611513804
H            3.16817373372125       -9.69583262974230       -3.53131859416766
H            2.72858139841519      -11.10003447236741       -4.50069464714602
H            5.96874412313814      -12.76690476682810       -1.07277850563125
H            7.08651112143584      -13.87488809249551        0.99882755304885
H            9.39312477348858      -14.23462750018646        4.93528781756775
H           10.07731386421956      -14.17308990496572        3.31315719695101
H            9.94886821705185      -15.71387928983364        4.16077406867257
H            7.08020880422878      -15.26863592793673        5.30943399236557
H            7.60858279173379      -16.76243438495228        4.54257704964150
H            6.17715100528781      -15.92293563149673        3.94589811129520
H            8.82891423967385      -15.26351621320501        1.35259885900691
H            7.24215821174231      -15.99833699315035        1.62201920697494
H            8.68820043300058      -16.75090902214487        2.28019189998743
H            7.49427106902257      -13.02721348072554        5.16189617243448
H            6.43354805393720      -10.86474581447333        4.85862137256766
