57
 energy: -13.317303230109 gnorm: 0.000761027928 xtb: 6.5.0 (97a52f5)
O           -0.82490662771002       -5.03710676811192        2.80857475163815
P           -2.21767441551437       -5.63807699953340        3.05197533387395
N           -2.50128666143912       -5.71389134927584        4.80934915099916
C           -2.28278154028743       -6.94284544733595        5.43609781321017
C           -2.26240792876143       -6.68000896666681        6.84913626634956
C           -2.10686190191109       -7.53340869955189        7.94646714822539
C           -2.09026991754693       -6.99115229666029        9.20547042935381
C           -2.22063150346797       -5.60949093368620        9.39737343304488
C           -2.36890654700687       -4.76029633807915        8.33137116951094
C           -2.39311435918912       -5.30061568645066        7.04172100550610
C           -2.50607538299986       -4.68209207833566        5.75384011565515
N           -2.49908793152141       -3.35863381171452        5.61776504576337
C           -2.75011088158764       -2.76719866991549        4.44527569219756
N           -3.19580316288688       -3.43550389705764        3.37022117372944
C           -3.33029674497170       -2.58047936744077        2.33634302213503
N           -3.70410819224715       -2.97159697537477        1.11324558821035
C           -3.74504221149887       -4.27012832844160        0.83674068822370
C           -4.20135497366424       -4.83465680668250       -0.40155699289809
C           -4.80786722114346       -4.24116526878194       -1.51455920040797
C           -5.12357176211948       -5.02910673842289       -2.58926951304557
C           -4.84088585248524       -6.40302187100106       -2.58679521652448
C           -4.24264994338898       -7.00156285011907       -1.51068547800740
C           -3.92024880087476       -6.21718974189811       -0.39476528445393
C           -3.27293663842501       -6.50094747775735        0.85300946713837
N           -3.24391427857299       -5.32988186586656        1.59270385495131
C           -2.70822775503472       -7.66489962347559        1.53009852509353
C           -2.84821029868682       -9.10482759141543        1.56779209565795
C           -3.33037259839047      -10.04865320277846        0.64924305207747
C           -3.41450899626734      -11.36011412118749        1.03103611904398
C           -3.04842338581956      -11.76942755855465        2.32302979074216
C           -2.59217633075343      -10.87036116680536        3.24837429348448
C           -2.47409427932048       -9.52487482918153        2.87803902992605
C           -2.13278361463360       -8.35216277186307        3.64959260489913
N           -2.17253546614861       -7.32703741834337        2.74885420959626
N           -2.11474316497916       -8.20170220482461        4.98132506300773
C           -2.99707026137764       -1.24879922074949        2.77665037701614
C           -2.97721472006097       -0.00571834789643        2.14340060297156
C           -2.58714141095532        1.09147078570278        2.87212102212274
C           -2.21512836051919        0.97125979064764        4.21592878065383
C           -2.22799590762577       -0.24761594209523        4.84891024350843
C           -2.62403355780463       -1.36930150096402        4.11923217748687
H           -2.00004703133726       -8.59161228845064        7.78707083172715
H           -1.97105309944463       -7.63533833218435       10.06090709489383
H           -2.20103306224236       -5.20967014446452       10.39779011296536
H           -2.46451071186065       -3.69745681410135        8.46555998929018
H           -5.01582604443755       -3.18594239256603       -1.50939785932312
H           -5.59227133290052       -4.58802652348540       -3.45343037415114
H           -5.09463473277710       -6.99497661573807       -3.45069502143362
H           -4.00863280059440       -8.04934185434593       -1.51870864310532
H           -3.62459732182787       -9.74006890689086       -0.33622434268382
H           -3.77765498688619      -12.09390570506645        0.33047827894145
H           -3.13837624425520      -12.80906983842623        2.59196261091739
H           -2.33041686746917      -11.17350191346834        4.24658164305403
H           -3.26212701358490        0.07421144241854        1.10939640437136
H           -2.56503739687432        2.06065341459308        2.40217678897486
H           -1.91254210158489        1.84992304959467        4.76130246028775
H           -1.94210376232306       -0.35176241947049        5.88045257360657
