74
 energy: -15.201243359921 gnorm: 0.000636285036 xtb: 6.5.0 (97a52f5)
O            2.61796906219947       -1.74947100371016       -1.42758556265869
S            3.83105275015699       -1.21571159295064       -0.75063651557622
O            3.98601328360916       -1.63257535731417        0.67209860124660
O            5.07544866168696       -1.26274226677603       -1.56901196647121
C            3.45645993770858        0.58066870332993       -0.63986399689861
C            4.57388839448362        1.32598580252852        0.05862635297352
C            4.31493351370627        2.82809451744566        0.17902876887843
C            5.44102036184358        3.56951994972574        0.88389547571579
N            5.18486501002324        5.01664967186366        0.98143145988041
C            4.51826019027652        5.48646734234310        2.10957181748828
C            4.31922577013017        6.80317007036315        2.31003435066817
C            4.79067361371081        7.77653357186951        1.37344993930127
C            4.77579009341078        9.12704770294641        1.76318663941494
C            5.52682105161836       10.16228968729472        1.21527255731439
C            5.43332539829504       11.47680083744803        1.64492998595177
C            6.22905420749301       12.49851804901426        1.14996175701439
C            6.12691788642744       13.81363438307161        1.58845575615843
C            6.91552071284999       14.89029563122959        1.16556709463256
C            7.96403950359564       14.69982199646222        0.21412420320661
C            8.75372313965502       15.71732559486783       -0.17795293171246
N            8.58233845399995       17.00688510745367        0.31411851337864
C            9.56695580580192       18.03195132914919       -0.07568239743482
C           10.64351080579183       18.21896901726457        0.98337537306013
C           11.67292675052660       19.28743756564235        0.61491292781505
C           12.73415628635984       19.48169266005957        1.67738055386391
S           13.94275149440151       20.77343496411718        1.17706548852482
O           14.53359261323467       20.23189292969768       -0.07918516288652
O           13.10373534619652       21.99448721872555        1.01691092705755
O           14.87083097424645       20.80222381771052        2.34009591025355
C            7.56381315261752       17.28210176903808        1.25574371964103
C            7.37533770735504       18.56310119514623        1.76863444628628
C            6.37924166001207       18.82568787983749        2.68577102219882
C            5.54777386432994       17.81047481155825        3.10980192346758
C            5.71135494176281       16.53353858306490        2.62018175898511
C            6.71554618516609       16.23083318180395        1.68959041038314
C            5.28457765739608        7.29087935764551        0.09412381265625
C            5.46614781062865        8.12890973452899       -1.01408540740132
C            5.93565081387165        7.64076137220505       -2.21335783495665
C            6.21758148818316        6.29706063205106       -2.34913408784050
C            5.99921150016953        5.43562197599820       -1.29352797066247
C            5.51473948404935        5.90073794345500       -0.07337491429839
H            2.51223547021587        0.70011665966507       -0.10897791338469
H            3.30414235436127        0.95950279644116       -1.65029459162198
H            5.51782964632840        1.15683581623059       -0.47536549225407
H            4.73205332663915        0.89850451776316        1.05712481752986
H            3.37435633945177        3.00131248383622        0.71488978158636
H            4.15599958019564        3.25851414772297       -0.81617241101106
H            6.39769967609122        3.40701473172935        0.38045203131348
H            5.57895760287944        3.17457344047283        1.89509784052324
H            4.18733099487029        4.76586374753573        2.83629056883821
H            3.84812243277577        7.14338452719189        3.21600934919228
H            4.19435551221479        9.37024050141496        2.63686661182464
H            6.27909654306121        9.92952388590359        0.48381518667598
H            4.71061593487917       11.71478774203599        2.40583564751933
H            6.95302174533014       12.24598524332415        0.39791654532168
H            5.37351502181278       14.00077396244091        2.32968840009260
H            8.13664702308111       13.72004688518573       -0.19133981961596
H            9.54868114048002       15.54969572930234       -0.88284156307250
H            9.04678277211896       18.97058368257955       -0.28366344978895
H           10.02060079821985       17.73822914938732       -1.02698791649455
H           11.14811194094605       17.26191410150931        1.16002960549660
H           10.17658751758947       18.47077247364502        1.94225237209876
H           11.16320534595501       20.24110908686520        0.42674242606381
H           12.14991262390134       19.02695805904267       -0.33863874139979
H           13.28037065972436       18.55655715177735        1.86063339741867
H           12.28919932536598       19.78117906824985        2.62613166971306
H            8.01380536404475       19.36539241641473        1.44742294606336
H            6.24935292868386       19.82423767926505        3.07016551155648
H            4.76913346447929       18.01745487654292        3.82571932622252
H            5.04645012384616       15.76388553860937        2.96546644056746
H            5.17221896024727        9.16076753304214       -0.95230015543306
H            6.07206753318748        8.30623544703554       -3.05018274001314
H            6.58622984643882        5.91675285744340       -3.28784870035808
H            6.18550311158816        4.38588772326973       -1.42798977960557
