78
 energy: -15.720773252740 gnorm: 0.000735488357 xtb: 6.5.0 (97a52f5)
O            2.37551968494848        1.63223490074526        0.71006682820302
S            3.67003150821802        1.06021287298188        0.25370053142566
O            3.64504870556562        0.47633027968204       -1.11644095924333
O            4.86634949671095        1.88598743479629        0.57756424805827
C            3.85325957479567       -0.40797214663992        1.34292576908255
C            5.15587917506702       -1.12635707302779        1.06674754664791
C            5.37051711696928       -2.34588970226759        1.96158913756007
C            6.69349300133064       -3.05135095331042        1.70108174968098
N            6.92820339362816       -4.15435539216232        2.65062972149165
C            7.62719641266670       -4.05552689510317        3.82248379585072
C            8.19421195378025       -2.94510510626682        4.47428220065407
C            8.01636353247573       -1.62525835859825        4.17093162901297
C            8.63183258588901       -0.52792035558170        4.84830097900090
C            9.50893756793603       -0.69502236585254        5.93512595385204
C           10.09352756107947        0.38271251265816        6.54052833431846
C            9.85014868460622        1.69459684319123        6.09735034479114
C           10.48783096940278        2.84916777637245        6.73025879401692
C           11.76856801901679        2.74921872252288        7.33003651839815
C           12.19630132286441        3.71247517691107        8.35704825714454
C           11.28965018212494        4.23963457615342        9.28543676230099
C           11.69788124311658        5.13725212740414       10.24369437391819
C           13.02009504897912        5.53187857741794       10.30693441049238
C           13.93501062988989        5.02051975163700        9.40709930786502
C           13.53251870425071        4.12209487457794        8.44690690810738
C           12.71766770336105        1.69915113242115        6.92506407190075
C           12.81213179940307        1.27791401484767        5.59234190376576
C           13.70110827210491        0.29692324543803        5.22132137756596
C           14.52348425164907       -0.28696031401669        6.16528534621450
C           14.45484150770819        0.11758993064798        7.48450416640087
C           13.56757271104919        1.09802139981570        7.86175300858274
C            9.77123587165219        4.13945967450211        6.71749232764246
C            8.38824655298264        4.19907922363234        6.92375741716037
C            7.72294209868058        5.40275191449294        6.90971417812560
C            8.41603453427908        6.57672704830023        6.68683746457610
C            9.78082741816946        6.54216913547534        6.47718038204841
C           10.45142736257852        5.34171089042873        6.49073173761965
C            8.95650310883598        1.86025347323807        5.02525546316872
C            8.36739545995786        0.78533342023046        4.41948432766047
S            7.78622013711326       -5.64394012212081        4.53469649881347
C            6.83574473397468       -6.40306556162450        3.27337352832733
C            6.46406978585474       -7.73069173690105        3.13539268546856
C            5.69897960468916       -8.10572445272100        2.05391819586254
C            5.30183084393066       -7.16386092172399        1.11064130674241
C            5.66712330084298       -5.84449077835359        1.23779434405524
C            6.44753612410774       -5.45140335789676        2.32985446091537
H            2.99962937289789       -1.06486722950610        1.17848046764897
H            3.80230335210632       -0.07205095142049        2.37843366860234
H            5.99261006208543       -0.42757947436626        1.19096207108003
H            5.19399243736617       -1.43009038673680        0.01289041337449
H            4.54536864734890       -3.05467988497743        1.82878279561059
H            5.31153166192272       -2.04888817867796        3.01452519403295
H            7.53871587516826       -2.36082130602058        1.74046446194295
H            6.71771708909090       -3.45323432148205        0.68444241323766
H            8.80953895501534       -3.18350760422074        5.32319018518170
H            7.34173560802310       -1.36329881824626        3.38107115572181
H            9.72622549923843       -1.68301760544677        6.29823525750400
H           10.75239952902565        0.23283946532784        7.37758582001772
H           10.26126846746523        3.92656714647850        9.24369858701728
H           10.98417565051663        5.53458190459688       10.94645432121350
H           13.33743768042172        6.23691470111307       11.05754270226505
H           14.96661250402982        5.32779245023775        9.45712869281963
H           14.24408177005417        3.73431697454636        7.73902372556880
H           12.17682505561433        1.73661737846513        4.85501708375777
H           13.75569259560965       -0.01759354641302        4.19212713071527
H           15.21858868245546       -1.05649728126321        5.87250536276264
H           15.09736622084768       -0.33719667787440        8.22030614265039
H           13.50692399034983        1.40449860856176        8.89151406708197
H            7.84969684676366        3.28616297763171        7.10974029911367
H            6.65844414410226        5.43051616549744        7.07449851894675
H            7.89247174090435        7.51845186964076        6.67600887480398
H           10.32140578142185        7.45786403305256        6.30287019656827
H           11.51363017439213        5.31423646406639        6.32140644017451
H            8.75471949870128        2.85427829273166        4.66640937620632
H            7.69216437270869        0.93852214853281        3.59543892231440
H            6.77574039780351       -8.44878757878728        3.87379621879203
H            5.40393024855927       -9.13546215144173        1.93820995370501
H            4.70028696976196       -7.47215955744132        0.27138611810743
H            5.34953985992667       -5.11832336250963        0.51198602620773
