104
 energy: -21.121284030152 gnorm: 0.000872760090 xtb: 6.5.0 (97a52f5)
O           -1.41887949809187       -5.18195650269518      -11.98363288482701
S           -1.95481273945178       -3.95934290412915      -12.63506692002687
O           -0.96076143442415       -3.17097908746868      -13.41158706616325
O           -3.28636285477756       -4.12382731478773      -13.27836766705667
C           -2.30493058362793       -2.87148431930930      -11.19378973491252
C           -3.03537877352622       -1.61602558197758      -11.62185984173161
C           -3.35208571260941       -0.68237321241585      -10.46019764218269
O           -4.05413921684500        0.47951810549452      -10.88887884308977
C           -4.42862022047484        1.35474253526861       -9.86682201869270
C           -5.18128454262899        2.47889045998376      -10.22254087560384
C           -5.59840421224381        3.38582655040571       -9.28140822501152
C           -5.28408145609840        3.21466282540771       -7.93223865882622
C           -5.73016053824796        4.17804875132743       -6.92600750487368
N           -5.89749718218012        3.98317850696987       -5.59338249423935
C           -6.36531690085379        5.10558842692274       -4.95633764978194
N           -6.67564668948064        5.25866441132998       -3.66760832616619
C           -6.58634982340488        4.13026656456943       -2.96129769249532
C           -6.98348521743090        3.95848105329179       -1.59115745404380
C           -7.45249809256269        5.00969451481439       -0.68632832797527
C           -8.08716884570300        4.70409888476183        0.51740549308665
C           -8.50545612753381        5.70435335295026        1.36700616957511
C           -8.29762769819347        7.02870576117994        1.03692494031827
C           -7.67093603157726        7.35119357696000       -0.14955757205717
C           -7.25718511065757        6.35242747401826       -1.00057942015280
C           -6.82424888218702        2.61726653471322       -1.28835678233375
C           -6.31757737366362        1.94509346413354       -2.41864699687460
C           -6.02005898754109        0.51579532625483       -2.50426051692098
C           -5.10695204016372        0.02031426121264       -3.43203113039282
C           -4.83431879628231       -1.31960704356245       -3.51669890296278
C           -5.46444210661398       -2.23948371139988       -2.67308598085022
O           -5.13869346630604       -3.58780522798086       -2.83546863314970
C           -5.88476580556366       -4.48973347340060       -2.02534212160214
C           -5.54688207222855       -5.91639515280138       -2.31749977550846
C           -4.56626024092393       -6.65115535989654       -1.71910063613210
N           -4.62407863426374       -7.85168793707727       -2.36688295169550
C           -3.81934691302780       -9.03758246598333       -2.03506609815431
C           -4.40282875035609       -9.76909990708423       -0.94578398781940
O           -4.59560525248708       -9.05913408064101        0.18197913400102
C           -3.53461588038080       -9.30964732272077        1.24490543533780
O           -3.44750438116588       -8.27549429682934        2.21700242791649
C           -2.42902553159688      -16.46702034932886       -1.98018147890621
C           -2.94490839851391      -16.22520189987053       -3.19651561736736
O           -4.76541663395222      -11.87441184764239        4.30514936049211
O           -3.07264148865941       -5.94798118049812        0.71440330066765
C           -3.70622731248453       -9.98196027766590       -3.19278279127126
O           -4.44162416397305      -11.12573741972844       -2.95614710061419
N           -5.58920959572196       -7.82593548407247       -3.28556101263094
N           -6.13308479795994       -6.67290148085322       -3.27680643190203
C           -6.37403658189205       -1.74256525705036       -1.73325476422134
C           -6.64181108924492       -0.39885843794530       -1.65227244914027
N           -6.18803916740278        2.88759130292864       -3.38634479069080
B           -5.61650109363452        2.71059773925200       -4.79323186969591
F           -6.23933425566345        1.63640455886968       -5.41028266890998
F           -4.24208460568274        2.53918951081850       -4.69263524063380
C           -6.49872534507158        6.10268113864976       -5.98239611602982
C           -7.00026863560165        7.46752372715496       -5.80921507804347
C           -6.87589238488789        8.42214708763820       -6.81859986283881
C           -7.36988224073973        9.69666005669642       -6.64837986709547
C           -7.99971832769562       10.04664201984097       -5.47083085881688
C           -8.13237438931231        9.11654962389086       -4.46007573648295
C           -7.63610257866199        7.84478316495664       -4.62902609463256
C           -6.10989565847372        5.51232572372468       -7.17246762153240
C           -4.52752982717160        2.09934471193431       -7.57974755398240
C           -4.10861318921144        1.18908624908832       -8.51547429236251
H           -1.35782186708562       -2.62765294880309      -10.71287794020687
H           -2.89126934267456       -3.43942397924452      -10.47162934507443
H           -3.96838398115283       -1.88160841553719      -12.13441289028701
H           -2.44415316374991       -1.07338572248406      -12.37007270000017
H           -2.42832140398490       -0.35928113018156       -9.96759306712898
H           -3.97037334782657       -1.19779926887008       -9.71671225296635
H           -5.43155013248750        2.61234292736427      -11.26024658195102
H           -6.18948265277625        4.23332495880592       -9.58031617266213
H           -8.25792913920938        3.67447082746473        0.77764660285681
H           -8.99647971992333        5.45251445627942        2.29276920058579
H           -8.62427397188973        7.80929834871704        1.70442397837922
H           -7.50576463235222        8.38401600545601       -0.40890024410021
H           -6.76589366565638        6.59733402095824       -1.92328603856875
H           -7.01344308357563        2.16532680679013       -0.33093757190205
H           -4.61853412697749        0.71437212906011       -4.08989815148238
H           -4.13234608409311       -1.69242770358861       -4.24162690279996
H           -6.94958307086021       -4.31990926521440       -2.21483393373670
H           -5.67376999578583       -4.26396781004756       -0.97498109263017
H           -3.93153346864041       -6.38648407884737       -0.88987892075692
H           -2.82187812257462       -8.71135009927412       -1.71540013947624
H           -5.57327984926726       -9.07137923564057        0.52231715959391
H           -3.72304714014132      -10.24364279335652        1.78812454363154
H           -2.54532436055835       -9.42474366263568        0.78470533108124
H           -3.28772527098696       -7.41507440396939        1.76546821738323
H           -1.37841695254866      -16.38212662824903       -2.01186198451850
H           -2.99071349428865      -15.30610227324899       -3.33558607977765
H           -4.60844981958911      -17.07330418024360       -2.97977534121481
H           -2.34022532905647      -17.35662469539138       -4.29036755279451
H           -4.01306608493571       -9.53782694278162       -4.12791137335827
H           -4.69341067196738      -11.07850477169592       -2.01100793541390
H           -6.87148050006346       -2.41909015429459       -1.06278439980906
H           -7.35525118321706       -0.03921892459387       -0.93147227278062
H           -6.38131742284944        8.15903914637084       -7.73671781377215
H           -7.26506425565757       10.42327634847006       -7.43745964541779
H           -8.38670654154835       11.04427465306879       -5.34091618810558
H           -8.62449896327999        9.38621675852634       -3.54021336130099
H           -7.73946445982828        7.11697253321686       -3.84721614575925
H           -6.10356315615609        5.99106191917312       -8.13544720971650
H           -4.27673939884333        1.96136752305809       -6.54534384795173
H           -3.52743380069748        0.34126030191232       -8.20146556469758
