36
 energy: -7.074685586464 gnorm: 0.000506883232 xtb: 6.5.0 (97a52f5)
O            1.05109542951310       -0.04961312484912        0.04374436023994
S            2.52728647235052        0.05153304119466        0.13943512094456
O            3.12135732839681        1.27193677887393       -0.46674186580849
O            3.11004693179699       -0.36784786393991        1.44105146568599
C            3.09769078915263       -1.27408313013622       -0.99820478249874
C            4.60892081008099       -1.31547251532088       -1.00986597821408
C            5.18549191630244       -2.38424454355539       -1.92622423395942
N            6.65967691719432       -2.37439870140623       -1.90632747717897
C            7.35484153899118       -1.55888486949562       -2.81543845818514
C            6.71071080904584       -0.67476737629770       -3.68452679194231
C            7.42156241290804        0.09722061946928       -4.57473423508681
C            8.80606399966598        0.01614767972022       -4.62840407872909
C            9.47692808301205       -0.82837379484090       -3.78577022843556
C            8.77518396333336       -1.62639365615671       -2.85899301293449
C            9.45069384238264       -2.47141484139092       -1.97323874188888
C            8.76329393389116       -3.23267737659246       -1.02300145959141
C            9.45329195311320       -4.05040469222483       -0.10465979558865
C            8.77110025730915       -4.76875092115339        0.83972596270567
C            7.38662385511220       -4.69497431821800        0.90389833577073
C            6.68702647177011       -3.90994852809703        0.01614550719281
C            7.34286778458801       -3.17100886424628       -0.97166682938698
H            2.69959818236860       -1.07547035205977       -1.99311176398619
H            2.67849555691593       -2.22373660981260       -0.66635999438292
H            4.98084985219527       -1.46962008817407        0.01083545223510
H            5.00134972556449       -0.33329854322084       -1.30183772647360
H            4.83721816959600       -2.25201388883950       -2.95338882583424
H            4.82532419847446       -3.37757270619728       -1.64820268136440
H            5.64155318129134       -0.57368604476841       -3.65117199068913
H            6.90098129531679        0.77161918091497       -5.23431398640861
H            9.35269104294304        0.62411435319489       -5.33064028404211
H           10.55081742979251       -0.88637012452999       -3.81899424984918
H           10.52351462662820       -2.51899113606587       -2.00800837022331
H           10.52716876197866       -4.09891618784789       -0.15095170169609
H            9.30882583398242       -5.38781798551713        1.53912234632235
H            6.85727299161413       -5.25537822082377        1.65662427431788
H            5.61775365142696       -3.85500064758986        0.10576671896391
