71
 energy: -13.394498135568 gnorm: 0.000557290722 xtb: 6.5.0 (97a52f5)
O            3.46214440955469       -0.70206605439849       -1.25410416492321
S            4.30908704144990       -0.86113974293808       -0.03963532656831
O            4.77046734437568       -2.26269084358095        0.17481991241379
O            5.40494098789926        0.13637785584290        0.10599013383700
C            3.17210971581732       -0.53936925933559        1.33111271122371
C            2.73742886201675       -1.63693277292230        2.02750137188062
C            1.88179882082854       -1.49866526959049        3.09944791227412
S            1.35114008323735       -2.94508290316788        3.99754989586985
O            0.07901119541164       -2.66893243100643        4.74193744474571
O            1.50943133080232       -4.17323353443143        3.15196616117206
Cl           2.91344391949319       -2.80651287975824        5.27054504140176
C            1.44866940350112       -0.25004955375880        3.48501507089839
C            1.87276132831811        0.86306278063381        2.80117886658966
C            2.74398135585179        0.75291882864942        1.69955152797576
C            3.18948792315524        1.98770888508132        1.00393989125882
C            2.61745306912312        2.38762796692416       -0.23969872719564
C            1.62680606589769        1.62488055698988       -0.87017192065084
C            1.06483046056708        2.00263074132996       -2.06540674784140
C            1.48675282648087        3.19952928596993       -2.68631177672475
C            2.47136122334874        3.98608898539133       -2.06829518780360
C            3.04018131461650        3.59329671155268       -0.85145758003438
O            4.00431939771468        4.40930356271606       -0.27898753505564
C            4.55669676589538        4.03051238382034        0.93517113278367
C            4.16850814278408        2.83915003309581        1.59519796156088
C            4.77498909325764        2.51666938729116        2.81574570666456
C            5.72425277524116        3.32380033019120        3.39415557670479
C            6.11545603114572        4.51546397788825        2.74353616653909
C            5.52530620036946        4.85662636432844        1.51639793554065
C            5.92033254292720        6.10760575170394        0.79732921814357
C            7.33681158934958        6.57511697175507        1.15994925143124
C            7.52753821782529        6.60382882312641        2.67518442949121
N            7.08858453049609        5.34700710499280        3.31660753984275
C            7.74752469658157        5.02029631337626        4.59767086123060
C            6.87410990772871        4.13896341783148        5.48870347192255
C            6.33604242890957        2.93164128761439        4.70741201333082
C            2.93664614119972        5.26226173915520       -2.69482124785090
C            2.75066658980820        5.27308646150887       -4.21844980926932
C            1.33473678656930        4.84122508482748       -4.59534677547189
N            0.93000352617647        3.59535562450199       -3.91122810961660
C           -0.09177023938098        2.78769895340288       -4.60824017461188
C           -0.90410021876396        1.92613747330911       -3.64309008288422
C            0.01928078157668        1.13630981120099       -2.70430292085415
H            3.07696381010402       -2.62066028282436        1.74278753803451
H            0.77943316692409       -0.16045015198069        4.32485848669292
H            1.53719532347726        1.84124615803908        3.09921226909381
H            1.31630401153793        0.70260007493734       -0.41468358214546
H            4.49442247256287        1.60455862080259        3.30932628614932
H            5.83296916034696        5.93595403910709       -0.28279423280170
H            5.19339005297570        6.89279270594398        1.03414556171783
H            7.54279110687474        7.56284391381195        0.72536513391725
H            8.07086847798883        5.89289438170546        0.71473244707145
H            6.95131213894679        7.42169902540224        3.11821264543804
H            8.57661854921146        6.77974956703175        2.93588277172542
H            8.00604708871242        5.95641494622789        5.10419658728419
H            8.69087375257327        4.51612347847484        4.36714614210943
H            6.03293990137615        4.73052159274356        5.86956314447762
H            7.43410176779429        3.80957119503609        6.37465972003108
H            5.59369479553640        2.38871626578360        5.30550744057673
H            7.14698757618236        2.21906082395425        4.51818040726504
H            2.38666416583716        6.09580662640834       -2.24335878840801
H            3.98951216810817        5.42191396731392       -2.43072801966741
H            3.47341854776346        4.58857265001013       -4.67839418720088
H            2.97448322498962        6.26676716058613       -4.63001396265275
H            1.24550049308901        4.68929699288261       -5.67631286688118
H            0.61277809799060        5.61803102592640       -4.32589286032568
H            0.42409392927507        2.15959505284299       -5.34086661413370
H           -0.74226129436905        3.46305256534389       -5.17432938025373
H           -1.56885396742282        1.24799502674843       -4.19556343901319
H           -1.56224957796158        2.57104201764913       -3.04849974356508
H            0.52062286544508        0.33606422454554       -3.26064911420405
H           -0.56551617504771        0.63617812440777       -1.92245890966216
