22
 energy: -5.659807562000 gnorm: 0.000879384942 xtb: 6.5.0 (97a52f5)
O            1.06377322260118       -0.06441587976331       -0.55496099898275
S            2.47203937195745        0.08832335662845       -0.07004544698098
O            3.39023409812648        0.68730039917763       -1.09119282906303
O            2.57367041709342        0.72106446786090        1.28435426848747
C            3.10692214136244       -1.59338743629107        0.16916364880107
C            2.27142845341967       -2.64602653017846       -0.13237275463386
C            2.68584498866629       -3.96270592321457        0.02246150495130
C            3.96475641893061       -4.26350069404351        0.48883591197833
O            4.39802775579062       -5.57835006361707        0.64640100569336
C            4.84530497190028       -3.19303340011373        0.80914613278791
C            6.14408940136194       -3.44441727175113        1.28565629675584
C            7.00041083456505       -2.40335095928760        1.59721858600400
C            6.58673257230686       -1.08708845434756        1.44253220066989
C            5.31513080387760       -0.80351566437605        0.97605457959240
C            4.41083334859162       -1.83495524241657        0.64690831589474
H            1.27930116480127       -2.43435453198487       -0.49543862453034
H            2.01638690293391       -4.76853183697016       -0.22018747838120
H            3.68839718547162       -6.19626145122992        0.37697436403748
H            6.45983389159277       -4.46640893420724        1.40395134913787
H            7.99251357539874       -2.61528817249114        1.96148391588035
H            7.25906437979412       -0.28107234820195        1.68785729246380
H            4.99599409945608        0.21702657081889        0.85896875943619
