21
 energy: -6.723930836442 gnorm: 0.000790289135 xtb: 6.5.0 (97a52f5)
O            1.09041859320782        0.25761974336636        0.21156417612499
S            2.56858932695221       -0.01967894537721        0.06080974356233
O            3.45052981716940        0.65596199483877        1.08683035764112
O            2.86538694699493       -1.49801563320037       -0.05469608803739
C            3.02640478562115        0.74800137096769       -1.52452831568666
C            3.51840968644682       -0.07646678854750       -2.51796111276822
C            3.89142558144292        0.42392237337249       -3.75741712781269
C            3.78627022503383        1.80503404502125       -4.06634246682494
O            4.12997202062692        2.25263175966672       -5.20397175340700
C            3.27231823714061        2.67582014761387       -3.03361452754783
C            3.13524910773372        4.05891472761913       -3.26342678905112
C            2.64225239632548        4.90396731990616       -2.27824357750779
C            2.27350237921477        4.39297392974966       -1.03929669949414
C            2.39391987990860        3.03426361469634       -0.77733263710135
C            2.89119004778094        2.13778733366296       -1.75344568575363
H            3.61305946487652       -1.13390182007925       -2.32110469460532
H            4.27341814719470       -0.23855973523807       -4.51699221418129
H            3.42063749965251        4.45706555402577       -4.22448907277350
H            2.54536689151850        5.96282894824272       -2.47574440387703
H            1.89069925210592        5.05598332338530       -0.27555629821691
H            2.10526971305162        2.64347673630726        0.18510918731837
