25
 energy: -7.466150512946 gnorm: 0.000700847822 xtb: 6.5.0 (97a52f5)
O            1.20094677988328       -0.08560323516299       -0.11865974165469
S            2.69957794413344       -0.08743962515902       -0.07868998420507
O            3.27223437552562       -0.20948400263571        1.30102620841338
O            3.32029183265156       -1.01401074713295       -1.08036429156019
C            3.17549016539559        1.57946180136368       -0.59866391481624
C            2.51114278400602        2.67467330815372       -0.07619883813611
C            2.86197061453404        3.96039107543268       -0.45630746598404
C            3.90361934416663        4.18464312149539       -1.38157746441645
C            4.30151909653940        5.48926068202085       -1.80142792226378
O            3.71105985124386        6.66549444211102       -1.33892867079212
C            5.34169581040884        5.60686462863741       -2.72755832101427
C            5.99071697197607        4.49839778172117       -3.23994137368343
S            7.33306916116578        4.70134419369261       -4.43509709781083
O            8.52211904619027        4.08982246860000       -3.75822849294558
O            6.86228489913167        3.95589286204321       -5.64712618938482
O            7.45933741616983        6.17894782244024       -4.65231195683524
C            5.62792520953657        3.23094888144015       -2.84966028678568
C            4.58728702589293        3.04116201234703       -1.92094472003558
C            4.19905988764860        1.75069429911271       -1.50719736427833
H            1.71403968926795        2.51432191942642        0.63215339002510
H            2.32511334231938        4.79135158609016       -0.03624462890888
H            3.02451123246637        6.47022293294406       -0.67045016543659
H            5.63988761740279        6.59046202724211       -3.04434060014967
H            6.14373283019453        2.37877365076566       -3.25781272617091
H            4.70454707214894        0.88836611301036       -1.90589738117006
