24
 energy: -8.544879743484 gnorm: 0.000691492809 xtb: 6.5.0 (97a52f5)
O            1.02354892285614       -0.12278677285177       -0.08772634830748
S            2.53342890220950       -0.07517052842259       -0.04553035452068
O            3.17350182398074       -1.42952532682821        0.15113669447093
O            3.15445694594809        0.70546598694174       -1.18115520267903
C            2.89781501039263        0.88969398237843        1.44881940446341
C            2.72652783562190        2.26507751403368        1.42288710482774
C            2.99573147951907        3.03169534639394        2.55131044252027
C            3.44454820172954        2.42752294038345        3.74160777427499
C            3.73101705942647        3.21314277983350        4.92091426829578
O            3.59121804080431        4.47405539842834        4.92910732429227
C            4.17781161120978        2.51367074298954        6.07653438758154
C            4.33464681798477        1.13952879523087        6.08438963704566
S            4.90621871942075        0.28690339561764        7.58020225755553
O            3.79551220974463       -0.68339462978267        7.90921246828334
O            6.19879133612442       -0.37543702707602        7.16266434070704
O            5.09859534560378        1.34794326497019        8.63777800122427
C            4.06229149216732        0.38653228576334        4.96021877045832
C            3.61667907118238        1.00199617453400        3.77133594583462
C            3.33290161332801        0.25801760340012        2.60275003792751
H            2.37977009069501        2.73589574329516        0.51448330207306
H            2.86296443487334        4.10170366602279        2.52617038585068
H            4.39674229750584        3.08109831813926        6.96517803435920
H            4.19196541132021       -0.68366703413204        4.99026505144370
H            3.45589532635134       -0.81270261926260        2.61272627201731
