22
 energy: -5.657685605190 gnorm: 0.000987989617 xtb: 6.5.0 (97a52f5)
O            1.47788213923205        0.35141240845553       -1.08515720962447
S            2.51181522232678        0.02557064380517       -0.05420817110636
O            1.98046003878213       -0.79493441413947        1.07957648979062
O            3.78721426369818       -0.49609100537859       -0.63935023270118
C            2.97964828179864        1.60453509166558        0.70588025220293
C            2.37661557237313        2.74809138769024        0.22444509767741
C            2.68744793143535        3.99202378696950        0.75504087360002
C            3.60871641907780        4.10383895501674        1.78007663432958
C            4.25107388333565        2.96522530180841        2.30877150364613
C            5.20742049971969        3.04484736368949        3.36599519484075
O            5.58541690599166        4.24089912089729        3.97667902375935
C            5.80468686411888        1.86947201275408        3.82464242086178
C            5.48955286939763        0.63291018849098        3.28345302806822
C            4.56618318787168        0.53466327356525        2.26552371445955
C            3.92588706754631        1.67873236389230        1.75153461309273
H            1.65840012421898        2.66415615436216       -0.57435599720409
H            2.20914203036736        4.87510178960231        0.36348700074260
H            3.83468321050576        5.07935685795701        2.16914833703695
H            5.08451657327406        4.99486948725913        3.60778387264111
H            6.52453089877519        1.94579734190404        4.62032558672635
H            5.96849260615308       -0.25573773756558        3.66155225133701
H            4.32024340999991       -0.42548037270160        1.84727571582308
