61
 energy: -15.264586920394 gnorm: 0.000130149654 xtb: 6.5.0 (97a52f5)
O           -0.02339174206939       -1.35758569799157        1.33566530337055
S            1.00081955280899       -0.28795745509931        1.58094859760777
O            1.06559146162784        0.69230110833457        0.45093115834807
O            0.87456572294649        0.31761471809548        2.94439036552662
C            2.62596144468067       -1.10289567146049        1.59128022014760
C            2.53714143963147       -2.47121733129002        1.58195564628162
C            3.66737374869640       -3.27303281383752        1.55570452418530
C            4.91848639832792       -2.68652446374249        1.52679455023034
C            5.03387285957280       -1.31920957480174        1.53739720297260
C            3.90072389593822       -0.47598728673015        1.58868225209815
C            4.15438493688176        0.93351224046126        1.62795406223834
C            3.25889837788319        1.92498181487218        1.93779734918056
C            3.52698907048482        3.31820722463828        1.95383437957280
C            2.52042258576033        4.21375138942382        2.38621821178409
C            2.74183601793606        5.56127858513349        2.42059321143072
C            3.97451085862905        6.09616443703426        2.01680588599528
C            4.21236004504800        7.52051572128997        2.04666161305685
N            3.34657986704765        8.42889596076175        2.52060444118195
N            3.88189192977277        9.60842542713671        2.39815857088267
C            5.09290349511916        9.46698575925775        1.83903389295601
C            5.98702473825272       10.55841303879851        1.53037619628166
C            5.66128764479186       11.87839047299938        1.87689715826758
C            6.50421957530638       12.90887445764398        1.57081388844793
C            7.72293384349453       12.67883039541247        0.88954994113140
C            8.56295715892818       13.77821942115122        0.57506776790687
C            9.72485592329299       13.72459787074903       -0.15148125130846
C           10.59289259148781       14.81789884393139       -0.47309606934413
C           11.56907004645406       14.57606175094949       -1.46626544123204
C           12.43642077055507       15.55472823588040       -1.88211598255704
C           12.37568793038207       16.81484281020358       -1.31773161671824
C           11.44478443531989       17.07452833508574       -0.32423103834131
C           10.56859211715505       16.11315847767624        0.10983108321556
S            9.48450923594751       16.69624864046268        1.44773156724521
O           10.00073145896418       18.03925214972177        1.87566064979223
O            8.12714590579059       16.78248523812689        0.82191804168751
O            9.62236030057869       15.67350157782351        2.53265411826723
C            8.04403298084570       11.34239716362267        0.55118838070381
C            7.19873438758367       10.31543762665122        0.86722087039567
O            5.34697752426696        8.14304918569495        1.59969869687705
C            4.97764840560310        5.21965051322265        1.57795408084663
C            4.76633781633803        3.86920553696549        1.54872416179941
H            1.56111073272343       -2.92957088902130        1.58399297166222
H            3.57065043321032       -4.34656242841585        1.54877792589547
H            5.80189982880746       -3.30387775463409        1.49891189409724
H            6.01265058780388       -0.87013756251960        1.52346584324657
H            5.17146022910992        1.22911618014630        1.44317319593493
H            2.26934135023954        1.62614262760058        2.22541233811537
H            1.56887530815786        3.81498587852144        2.69497733493104
H            1.97105559681061        6.23298882033284        2.75544441580108
H            4.73380384709975       12.06465988725871        2.38940788115471
H            6.24359843557265       13.91809499564242        1.84161663411824
H            8.23303260331157       14.74212828365422        0.91140618286429
H            9.99740953351190       12.77425789086059       -0.57392015830271
H           11.61717331638066       13.59930352411283       -1.91734459291845
H           13.16256527497283       15.34344716121089       -2.65050002341456
H           13.05312465449370       17.58818598221165       -1.64160378310231
H           11.41166804497007       18.05211179110645        0.12959315649600
H            8.96905862991688       11.12882266732377        0.04589335874802
H            7.44784612212775        9.30106718158410        0.60684643419284
H            5.92108010596631        5.63338212290163        1.26560128200306
H            5.54966860672837        3.21912780586817        1.20169106612734
