85
 energy: -18.684373565153 gnorm: 0.000813565661 xtb: 6.5.0 (97a52f5)
O           -0.94162566638914        0.20152149468618       -1.84735624348467
S            0.19679545806531        0.11545231080588       -0.84965443486866
O           -0.11652136744204        0.04354693428559        0.63219193530699
C            1.26099157651544       -1.25233862505467       -1.31563057946248
C            1.53459614411904       -2.24440426772102       -0.40320864883972
C            2.35155038178102       -3.29811470927479       -0.75259156873123
C            2.91107274032397       -3.37087831162057       -2.02808860491503
C            3.78227354280531       -4.50477454747852       -2.40903461956057
C            3.44616555647965       -5.81323294581647       -2.06090327549702
C            4.25120001692658       -6.86771037426156       -2.41895466078668
C            5.42401136093051       -6.65421471985081       -3.13558895891640
N            6.25998385182954       -7.75807132053263       -3.51714229570703
C            6.80013001716329       -7.98877949807147       -4.80074555831120
C            6.67431111023445       -7.27087851575413       -5.98983158505786
C            7.30429802744638       -7.74006234994718       -7.11612687037079
C            8.05696170941853       -8.91698963827980       -7.08381814594931
C            8.18367022558791       -9.64250225137421       -5.92410825751081
C            7.54804558854246       -9.17809795239315       -4.77180715883015
C            7.47190734756343       -9.70025000214041       -3.42852498303472
C            8.02504594061755      -10.83322518768939       -2.83038586129134
C            7.78122285581353      -11.05901848667943       -1.49737061315748
C            7.00038769956989      -10.17365461129605       -0.74953979380159
C            6.44937227679933       -9.05534975886574       -1.32521966770477
C            6.67760821603803       -8.81504333074488       -2.67997254031718
C            5.76600622981827       -5.35103791383282       -3.48172812397679
C            4.95991464738894       -4.29596215990359       -3.12704686767691
C            2.62341537303111       -2.35188011328269       -2.93629203223374
C            1.80230903664965       -1.30354919082600       -2.57971747994730
C            1.34478949519641        1.46851063793167       -1.12090963826332
C            2.60387566812833        1.43277271517828       -0.56610730017060
C            3.48162364357158        2.47377696676843       -0.78019408746321
C            3.10584957629566        3.57365944688805       -1.55132028739428
C            4.04025730053427        4.69919423886996       -1.77492809203310
C            5.37880125668404        4.46855728449300       -2.09262563247563
C            6.24488440659451        5.51540791528611       -2.29908708562076
C            5.80740400347089        6.83144917066534       -2.19035340779467
N            6.71453897179560        7.92563894381684       -2.39657134212891
C            6.47132368221815        9.07683713105869       -3.17658091664369
C            5.36961001526023        9.44396148312676       -3.94914182424430
C            5.40656980430706       10.63596526237218       -4.62981719816534
C            6.52451157516029       11.47142073578329       -4.56031359304719
C            7.62289870784385       11.12133411625276       -3.81312557051738
C            7.60023885756643        9.91167273822165       -3.11771508519013
C            8.57242569379489        9.26114495364181       -2.27253536442931
C            9.85055650473095        9.63373212918192       -1.85411362719663
C           10.53928763942246        8.79395416444303       -1.01282576834788
C            9.97395878965898        7.59274918005619       -0.57690063826855
C            8.71728677841065        7.21366659728386       -0.98006316135496
C            8.00752486930700        8.04818352593639       -1.84326157496098
C            4.47382795221692        7.06655460512392       -1.87245767403022
C            3.60575346665441        6.02067122783524       -1.67068086875322
C            1.82461946972550        3.58985680579274       -2.10197523878569
C            0.95521722668902        2.54200805482764       -1.88730876204058
H            1.10502518933164       -2.18397273481167        0.58286173786979
H            2.57461294998452       -4.06966485800257       -0.03634906077268
H            2.53340911085030       -5.99158477872154       -1.51908947916178
H            3.97313169568289       -7.87560957218185       -2.16630061784591
H            6.08305802559273       -6.37346793369556       -6.01333612468315
H            7.21583310748005       -7.19414489978376       -8.04090898268786
H            8.54109691902878       -9.26176130754202       -7.98255209666171
H            8.75560568280251      -10.55284321049747       -5.89213764659225
H            8.62942030019150      -11.50652931444317       -3.41198679754234
H            8.20060010461597      -11.92932806152739       -1.02020132133544
H            6.83010400971373      -10.37172542602858        0.29586326623547
H            5.85980958758991       -8.36406031653094       -0.75067170098536
H            6.68276780568022       -5.17983641946442       -4.01764997393406
H            5.24096535183916       -3.29048249129248       -3.38887732496474
H            3.03960279414033       -2.39933781463542       -3.92756111082243
H            1.57818756108457       -0.51858886854171       -3.28277504245872
H            2.89366235564445        0.58677187299070        0.03451411406518
H            4.46335685308415        2.45244411565048       -0.33993690662427
H            5.72528809671308        3.45409768004534       -2.18938833511974
H            7.27008622317154        5.32932653291256       -2.56611505505832
H            4.51695153772609        8.79234951612770       -4.01106679496619
H            4.56117275086574       10.93148788393457       -5.22904260928356
H            6.52566965225840       12.40186176141862       -5.10367136892373
H            8.48947808239175       11.75602934473425       -3.75778445333820
H           10.27560476156506       10.56316829046206       -2.18922458289845
H           11.52746431177083        9.06655380662304       -0.68086115538509
H           10.53315062328762        6.95609246443220        0.08871939284948
H            8.27224675695562        6.29841087703105       -0.63412392353975
H            4.13670181196942        8.08242257591272       -1.76613224391567
H            2.57953743564301        6.21381502414197       -1.40961266393703
H            1.52394310945441        4.42672513024294       -2.70803635779219
H           -0.03328981090073        2.55012114307583       -2.31561354569763
