57
 energy: -13.541433802187 gnorm: 0.000901606785 xtb: 6.5.0 (97a52f5)
C            1.97921619790456        0.00728742369475        2.24890947613168
C            2.95723073750366        0.02910373839105        1.53373914950897
N            4.08084876585451        0.03371038559794        0.70128465577033
C            4.64260130482588        1.09698799194464       -0.03001174934448
C            4.20702219820607        2.49086393896250        0.01207132617048
C            4.60503033379317        3.35341724119176       -1.00024977681813
C            4.23478822858786        4.69128996146635       -1.00593768185374
C            4.66868730028988        5.54269674524333       -2.11076516565073
N            5.19107114416764        5.05057523148251       -3.22036699175191
C            5.48442401552097        6.11676908582068       -4.01760682418698
C            6.05754439388980        6.16333133188008       -5.29811694850907
C            6.26399230090640        7.38333952710783       -5.88642460321902
C            5.91570857357925        8.57536666247655       -5.23391531642571
C            5.35421215120130        8.55779572798922       -3.98448148780633
C            5.13420500222876        7.32070158452660       -3.37194053732226
N            4.61033153633254        6.94877364698654       -2.14428433315116
C            4.21482849997728        7.84550990455462       -1.14685506667536
C            3.88071461315176        8.63697732916681       -0.29205519863368
C            3.44529129928812        5.16190781102247        0.03536560789148
C            3.04239722987868        4.32960761525379        1.07160170762621
C            2.20428777794175        4.87266723066929        2.13865294494605
N            1.50241459574089        5.98335461033398        1.99967178047607
C            0.85555477641364        6.18515423144924        3.18245157889635
C           -0.01499257051012        7.21269012033213        3.57782167920682
C           -0.52704193055053        7.19289931223869        4.84850497182587
C           -0.19573870620077        6.17151837890433        5.75151618767692
C            0.65211705563479        5.15769189026074        5.39101359239896
C            1.18033519530606        5.16175331637546        4.09686819999001
N            2.04865886554424        4.31829493076541        3.42261705195430
C            2.70152780471389        3.22171846838815        3.99405109167685
C            3.26709461630090        2.27902825442758        4.50379354837526
C            3.42850487151262        2.99537088890059        1.04578808497859
N            5.63262141003277        0.68654629548735       -0.80294925362469
C            5.75988195502278       -0.65420032325113       -0.59321267694731
C            6.65092665313931       -1.58093977175088       -1.15602194223322
C            6.56043342844612       -2.89601208616051       -0.78222560799617
C            5.59854468336046       -3.32519673836566        0.14446682844930
C            4.71700452798429       -2.44109792447956        0.70818485455131
C            4.79874888502370       -1.09514301687410        0.33991413338012
H            1.11870823653114       -0.01205991215212        2.87749475274155
H            5.21425990149956        2.97557591882665       -1.80019582392155
H            6.32519449817817        5.24705347488674       -5.79299722184308
H            6.70436134880380        7.43016172597728       -6.86868557591954
H            6.09358691096710        9.51818210618559       -5.72423995795833
H            5.08298281633949        9.46408946094587       -3.47314163546696
H            3.58791613131483        9.33142271182861        0.46189458825319
H            3.13199849631494        6.18762231791110        0.05036385399499
H           -0.26216064976232        7.99480007670429        2.88262849142275
H           -1.19492233087594        7.97767634819197        5.16317359799591
H           -0.61535358702780        6.18675905349225        6.74377511165264
H            0.91421669387041        4.36917069804463        6.07350849324846
H            3.76323802626087        1.44826111136211        4.95072368947072
H            3.11941289827100        2.34383626771563        1.83802089196486
H            7.38352802491394       -1.24633657768235       -1.86830865914064
H            7.23918649155274       -3.61624028791637       -1.20825690064587
H            5.55394289690729       -4.36703460490494        0.41563422568483
H            3.97518347416863       -2.75725084228577        1.41955078917858
