108
 energy: -19.791380387070 gnorm: 0.000504531811 xtb: 6.5.0 (97a52f5)
C            3.97720604854216       -0.21756076323123        1.32472410867284
C            5.28561377670110       -0.98365680975258        1.05424541177176
C            6.46176401153312        0.00519768199503        1.17300082268665
C            5.46983966104308       -2.08461689019399        2.11559893362356
C            5.21567443862910       -1.62585843159230       -0.34022458078958
C            6.10414536689130       -1.28306364086509       -1.37020416222983
C            6.02975016315333       -1.84416424353390       -2.62503597630369
C            5.04598163608958       -2.79382512259655       -2.89846640549708
C            4.14571790551178       -3.13464089876788       -1.87177988732538
C            4.23088079973774       -2.55836229665975       -0.60794524303190
C            3.20010081481185       -4.08138026033303       -2.41561669514010
C            2.09637526140212       -4.72982591095118       -1.87955702953867
C            1.33871903777657       -5.58442321765036       -2.67751634861122
C            0.12008211664932       -6.28617690156298       -2.05766533146343
C            0.57782390042608       -7.14418857982198       -0.86320329187325
C           -0.88757964476485       -5.22484382330677       -1.57796508107345
C           -0.58908141443418       -7.20450017439941       -3.06910399504720
C            1.70618872590740       -5.76217769849642       -4.01285403365145
C            2.80350175416351       -5.12181837589691       -4.57112899826973
C            3.55864154907868       -4.28085259157012       -3.75596299907089
N            4.69383966698333       -3.52996979725624       -4.07338447964511
C            5.25938158538031       -3.62366051337435       -5.36812012820630
C            6.42469481555648       -2.95487624782016       -5.71429879918175
C            6.94853800583907       -3.01007198496516       -7.00098932010797
C            8.12524005545142       -2.30058639356560       -7.36955367533262
C            9.02626982407895       -1.66513896608720       -6.58983557235222
C           10.12893411355719       -0.99667382203624       -7.07660978755465
C           10.43267548655455       -0.89755689840602       -8.37414590010989
C            9.71188338769745       -1.44484692166333       -9.34483863696883
C            0.82463920896385       -4.23836484236409      -13.35620560011303
F            1.77116949480701       -4.94247582932883      -13.67515523585154
C            6.28786110964394       -3.78022249736155       -7.95635260587037
C            5.15527242470196       -4.51072262330442       -7.64871060246247
C            4.62631783823635       -4.41511648941998       -6.34668685570258
B            3.33309773006194       -5.15684242858726       -6.00933641446084
C            2.50576404658790       -5.80385753636498       -7.15758887254027
C            1.25391139712812       -6.31682393500694       -7.16156723425879
C            0.84423053268181       -7.31782560335116       -8.17279433731111
C            0.27266826731341       -8.68773130177059       -7.67838438913627
C           -0.32983496855787       -9.47704499754328       -8.85302202905594
C            1.41140058686945       -9.49853869484335       -7.04096629474203
C           -0.82832311198196       -8.43468222247036       -6.63740976953202
C            1.65747705657061       -7.32189720681960       -9.43986455128692
C            2.81487979771573       -6.62705148200122       -9.48470649565879
C            3.85373865942856       -6.50449987548745      -10.49766387733403
C            3.94446392191702       -7.03084196748839      -11.77811777715707
C            5.08735813104471       -6.81156038709112      -12.53143992035236
C            5.23901120273704       -7.34775604720099      -13.96364877083331
C            5.45940759648680       -6.16691902940405      -14.92772310372962
C            6.44571530565467       -8.30248099549635      -14.02719070219559
C            3.98524435784300       -8.11930153686173      -14.42103351979049
C            6.13128321283671       -6.08202779495992      -11.95397133937395
C            6.05214755188982       -5.56038874462470      -10.67988544018626
C            4.89208994768503       -5.74517559234489       -9.93661908949447
N            4.49774288957974       -5.33622474859784       -8.60724922660979
C            3.27730418602267       -5.87524773097559       -8.35372046328681
H            4.00115561055588        0.26261147398229        2.30253468652338
H            3.11634397655200       -0.88436178122905        1.30194042317906
H            3.82155190456498        0.55544790294028        0.57274471525983
H            6.49967867891395        0.44165048382145        2.17077758740212
H            6.36065834559929        0.82351648404408        0.46078132687655
H            7.41366308654170       -0.49442038304200        0.99562790166474
H            5.54253330158391       -1.65466238747427        3.11419367580203
H            6.37959972017056       -2.65345479505336        1.92611002014163
H            4.63269636623805       -2.78118357359831        2.11434714556781
H            6.86899845317658       -0.55091794153397       -1.18173026070155
H            6.71218701963322       -1.52172455095525       -3.38627688371491
H            3.51907429990538       -2.83812124744170        0.14627286088898
H            1.83428121462110       -4.56068294555117       -0.85191601373074
H            1.03575903779740       -6.53247414279002       -0.08727538655796
H            1.30965832188845       -7.88632411575155       -1.18072251032684
H           -0.26482769444330       -7.67106012396920       -0.41640260058242
H           -0.45034673977594       -4.57736502675753       -0.81925217784962
H           -1.77158169323358       -5.69355383137312       -1.14658710613839
H           -1.20959770000081       -4.59735181826924       -2.40849952087521
H            0.08555417079647       -7.97862435747505       -3.43339197915273
H           -0.96199931039199       -6.63235144468833       -3.91779491397451
H           -1.44241324971157       -7.70175183849359       -2.60862933696198
H            1.13121646713004       -6.40966126904725       -4.64557549039150
H            6.94081689516029       -2.37882122392559       -4.97760665612407
H            8.87986865086917       -1.69069615900015       -5.52290912217725
H           10.79583492173458       -0.52003619456967       -6.37576138340967
H           14.54601553696286       -2.69612508763740       -8.10086695690140
H            7.56444179014615       -1.23443208339956       -9.95205676754881
H            6.66442186783272       -3.76840940739598       -8.95814399573256
H            0.31497782134568       -6.23090529857819       -7.95657935642039
H            0.43534984408403       -9.75390802775899       -9.57688808746590
H           -1.08826217007616       -8.88763203696354       -9.36743346214367
H           -0.79841868223717      -10.39628539087927       -8.50251461541114
H            2.20648086139082       -9.68224059416758       -7.76299893150079
H            1.05205978424815      -10.46154320865273       -6.67953776662476
H            1.84407030260844       -8.96051579405293       -6.19797886667489
H           -1.64316790877838       -7.85280543498186       -7.06713893224654
H           -0.43285387639160       -7.88247272035761       -5.78811520401306
H           -1.24067171528075       -9.37257377866003       -6.26645800618163
H            1.32633921427688       -7.87327295448946      -10.29937012702125
H            3.12173956276292       -7.60242905023896      -12.16403707879955
H            6.36309909805796       -5.61345291678563      -14.67672390990287
H            4.61981180835256       -5.47361467126516      -14.88511118916444
H            5.55741278962987       -6.51567734628114      -15.95533256770231
H            7.37156559878858       -7.78942108466107      -13.77121546962156
H            6.56154867346464       -8.71768640228806      -15.02794155543906
H            6.31792678048400       -9.13074752728216      -13.33090383869519
H            3.10298778494840       -7.48022989079023      -14.40461886542710
H            3.80028606732801       -8.98200450600677      -13.78177638171145
H            4.10727484783715       -8.48488828743358      -15.44028403604428
H            7.03134881969252       -5.92760219732984      -12.52343832911053
H            6.90157021954453       -5.05713686084556      -10.26047310328502
