85
 energy: -15.689494228047 gnorm: 0.003615818431 xtb: 6.5.0 (97a52f5)
O           -0.14205193398834       -0.94591159301024       -0.29433150874665
S            1.35022877158922       -1.02939868190817       -0.04266229595501
O            1.94815256811215       -2.31857285986531        0.48321881361660
C            2.22524703524744       -0.51057285726658       -1.52246562977546
C            3.35302116328563       -1.18706779171582       -1.92539759680803
C            4.02855727695755       -0.79078240664466       -3.06039805251451
C            3.57835428258364        0.29572954759399       -3.81200483233460
C            4.25162239383513        0.72901595412223       -4.98959281045632
C            5.09004280028532        0.03691382138995       -5.79192003693024
C            5.71644138280327        0.56413283219091       -6.89980924997667
C            5.57518984117875        1.83028811573779       -7.34624935626689
C            4.74583338072627        2.77021206289302       -6.88906864820489
C            5.04414883218971        4.05600316894982       -6.90002443528433
C            6.22381008017023        4.58712234480598       -7.22883943095597
C            6.49966663405968        5.89697892223924       -7.24692697991279
C            7.73396993338653        6.51324812803498       -7.49341327300191
C            8.95592428420993        5.97748351668427       -7.86053109608022
C            9.27604276212105        4.73121553867697       -8.33156620712081
C            8.60304615185982        3.77258355673177       -9.13102498068332
N            7.46548435440561        3.95607930256987       -9.84343560345897
C            7.00249025917443        2.95968044897182      -10.57984162814616
C            7.67064860752124        1.76400117604362      -10.64042549716920
C            8.78317284031739        1.58392198423216       -9.96886012953550
C            9.26918457596045        2.56350037863411       -9.20867468576485
C           11.25608861011649        4.69914897344824      -11.56581343415681
C           12.22534723516070        3.90116820979187      -11.88564075505118
C            2.43717890006729        0.97151103284085       -3.37996120770818
C            1.76689865604402        0.56670410202194       -2.24564918748628
C            1.86538364694125        0.33530325376226        1.00245383840136
C            3.08672119956375        0.29055860997742        1.63461820688349
C            3.48988879138474        1.34039342073142        2.43238156757828
C            2.66878617619702        2.45568976599190        2.60459662432122
C            3.05949642834999        3.55728403890122        3.41828273329580
C            3.87056203420652        3.56794306614237        4.49871601877575
C            4.18013358569156        4.70020118836112        5.21915056909286
C            3.75873229399638        5.94437801053942        4.90955006934531
C            3.12686144193682        6.33471278902209        3.79927315495560
C            2.18284167520607        7.25744264909391        3.78895904471304
C            1.58138605139505        7.78743481578223        4.85596241100531
C            0.67543443364252        8.77270505889173        4.81537490831380
C           -0.06672592175570        9.30482492911448        5.87794952768004
C           -0.03090535978032        9.02989938485930        7.23353121892312
C            0.88838636751036        8.33985491315044        7.97931160129443
C            2.29521746288491        8.16451011563362        7.91399116958705
N            3.16958171086883        8.84316301020446        7.13373364721371
C            4.46145305733522        8.58220554189402        7.23982342861041
C            4.91700736468138        7.65371922358999        8.13980244375413
C            4.07877496281240        7.00806916875455        8.91538245117290
C            2.76990746713370        7.23931931894714        8.82540744609396
C            0.93862275514470       11.09633488830204       11.10094982747367
C            1.03320567155595        9.80757787751518       11.21387223017689
C            1.43694786961428        2.48082940842683        1.95149043568521
C            1.04037091271846        1.42464717044514        1.16000243011493
H            3.69695389001422       -2.02677688680466       -1.34439295940414
H            4.91687439736388       -1.31518247900343       -3.36605361778079
H            5.27727354112865       -0.99548576087528       -5.54662205918056
H            6.38990662753172       -0.07126398428704       -7.45219181705601
H            3.05271895766487        2.21615610877905       -6.63115172094320
H            5.68245901099436        6.54978194544541       -6.97911787407501
H            7.74307367602434        7.57818021356672       -7.30567660572621
H            9.80338452941404        6.64273998014719       -7.76419914599043
H           15.46287898179409        4.84270798168108       -8.01102195769483
H            6.09048333301980        3.07547239676026      -11.14438790672624
H            1.64995958055690        8.02501911928981      -16.43638759563051
H           12.99778330798682        5.43867341579471      -15.97357975220402
H           10.55348150097899        4.50057348296851      -10.81005744687859
H           12.40797667559337        2.97685860308831      -11.41952297769005
H            2.08491722982520        1.81560497596899       -3.94774780149778
H            0.88108404679768        1.08494196017261       -1.91779880696011
H            3.71921421443445       -0.57095817585867        1.49852896441035
H            4.44950154877087        1.31183141308954        2.91823652447915
H            4.26260619533030        2.62269542615524        4.83818540474432
H            4.77963026414232        4.59275855026244        6.10890861889570
H            3.86084695785295        5.78555708557721        2.27092838262073
H            0.45431387136341        9.16148680693552        3.83265307014862
H           -0.83504215554029       10.00452023471407        5.58049999904154
H           -0.85733986443655        9.42254524145527        7.80902782977325
H           -3.52420228629867        7.15085021283943       10.11897935592106
H            5.17630395024887        9.09670849816335        6.61662239859947
H            9.97003818955769       15.73921557498181        8.18131668985126
H            0.70323225118695       14.37278571894930       14.35211282744589
H            1.37009906196989       11.65736457005809       10.32265791387340
H            1.54276952900271        9.19491450577151       10.52745721108512
H            0.79682207617189        3.33695827944215        2.07885960168530
H            0.08508313014875        1.43828646135712        0.66216798104158
