69
 energy: -14.655807256705 gnorm: 0.000692428344 xtb: 6.5.0 (97a52f5)
O            3.67380546087062        0.41210709953654        2.20278796515800
S            4.83585164795328        0.35030649357675        1.23036255190807
O            6.24533788732184        0.56055491471773        1.74631783951502
C            4.75568164577282       -1.17878179623919        0.29321229323066
C            3.57747471687217       -1.88787532482248        0.23412819285550
C            3.51056189695603       -3.05512262312668       -0.49461243472707
C            4.62861070687979       -3.52750048496414       -1.17874285191975
N            4.56942273447359       -4.74547622308060       -1.93335955398975
C            3.35947442225849       -5.12480433250836       -2.60605990764651
C            2.96898279878102       -6.46033690510052       -2.66190850661589
C            1.81360053946086       -6.82806724945349       -3.31379185607284
C            1.02733269299545       -5.86984232941565       -3.92271136870586
C            1.40169744662436       -4.54115277456140       -3.87731076690461
C            2.55650461935840       -4.17046810454708       -3.22556914376687
C            5.72244645648405       -5.59804548109474       -2.00948425227009
C            6.05235018313568       -6.24123847734754       -3.19966993392605
C            7.16068029462826       -7.05448663695414       -3.27417923432683
C            7.95849036827777       -7.24210080017649       -2.16252189903681
C            7.64279695477411       -6.61303038698197       -0.97421550003141
C            6.53549493725754       -5.79867864075112       -0.89684661750789
C            5.81184734430144       -2.79575578672974       -1.10580383951907
C            5.87204010123793       -1.63169880725289       -0.37235740208857
C            4.52431993474104        1.44305729269454       -0.15879347803943
C            5.56200825992167        1.81251245666128       -0.98448225375727
C            5.32500102322319        2.63497163391798       -2.06340086128312
C            4.03987032193325        3.10427111710953       -2.32538097842218
N            3.78857709322046        3.95721379908415       -3.45265448588925
C            4.42649595942294        3.68438673949855       -4.70869628297527
C            4.83588658688765        4.72218021923715       -5.54202400102063
C            5.44343600899408        4.45601878776900       -6.74847246474136
C            5.65496922740178        3.14989164632783       -7.14428423277301
C            5.25756032141070        2.10963597285465       -6.32746926107697
C            4.64964570497232        2.37291565055328       -5.12059793112873
C            2.89922490024251        5.07496693228188       -3.31720210936139
C            2.07057768670439        5.46045191168342       -4.36779525765609
C            1.22082842065893        6.53539268181934       -4.23384564741756
C            1.18162465003989        7.24400991287734       -3.04908023855415
C            1.99535892478295        6.87246954267130       -1.99693716731788
C            2.84578024061855        5.79782350499480       -2.12818293833412
C            3.00376446511984        2.72655983744303       -1.47402113664917
C            3.24825741560038        1.89894926110230       -0.40033299371322
H            2.71503069505206       -1.52035575305983        0.76473908188283
H            2.59626444722198       -3.62031750765189       -0.53431736497662
H            3.58248751127070       -7.20138670149385       -2.18058959496135
H            1.52220625308976       -7.86501017638010       -3.34878674784596
H            0.12354569928111       -6.15864399605969       -4.43359608633141
H            0.78956989821254       -3.79343993858376       -4.35437283444850
H            2.85891017465643       -3.13851824046141       -3.19709494689073
H            5.43151975799493       -6.08409241909581       -4.06402809434086
H            7.40739091874397       -7.54426021587819       -4.20189697812931
H            8.82630087144885       -7.87812780989850       -2.22225701784306
H            8.26386559492440       -6.76053729051573       -0.10593501113148
H            6.27921718809530       -5.31312475317711        0.02825830256500
H            6.67747829936240       -3.14871737272939       -1.63793125497855
H            6.78791178892819       -1.06792530047555       -0.31215205781091
H            6.55607253569600        1.45366257630443       -0.77628400155408
H            6.13033380863673        2.93039076122649       -2.71249347707082
H            4.67787062065969        5.73779593738971       -5.22464929547009
H            5.75462839652564        5.26827824843235       -7.38469015428623
H            6.12975892422578        2.94292333062085       -8.08925028265747
H            5.42202413270094        1.09022320328579       -6.63593200594632
H            4.33061007677556        1.56635526705423       -4.48427722897758
H            2.09783478829222        4.89922653261853       -5.28507926959182
H            0.58493189733762        6.82381416933255       -5.05467665375142
H            0.51691648533533        8.08586501641467       -2.94584742008534
H            1.96612006535036        7.42570206185352       -1.07256273414504
H            3.48773513410616        5.50876435929286       -1.31488464932777
H            2.00832275013011        3.08126403480006       -1.67504619509029
H            2.44910828343624        1.59964773362250        0.25708391953610
