111
 energy: -23.688185693105 gnorm: 0.000485374933 xtb: 6.5.0 (97a52f5)
O           -0.06930142745025        0.57089351567004       -1.31072865367491
S            1.36211161958048        0.08015414740156       -1.18783749090849
O            1.75232571055940       -1.26887289688862       -1.76006477324774
C            2.48297255218886        1.33091285386365       -1.81494926758074
C            3.83151150080374        1.06563356889160       -1.88362196838649
C            4.70539912555287        2.04793744002550       -2.29289423438026
C            4.24116859837362        3.31065566498167       -2.65648696218918
N            5.15559326607867        4.37682647887266       -2.94843396924181
C            4.62316222633410        5.69475349187716       -3.21139431872776
C            3.91487732664522        5.96764662399057       -4.38112882029452
C            3.36621305777355        7.21392837531270       -4.58969509925812
C            3.51372432979712        8.20793036526139       -3.64042919076999
C            4.21548265084774        7.95122435546638       -2.47774894938135
C            4.76263574969146        6.70832227526528       -2.26746857764874
Si           5.70792830839547        6.24119231316005       -0.74892127949224
C            6.55464773465997        7.73745312879174       -0.04500350284588
C            7.57781715340030        8.33461161592792       -0.74890977811679
C            8.19511246402415        9.46406842136901       -0.24803658143126
C            7.78397819558710        9.99534324558140        0.95816307976076
C            6.75699859519574        9.39867408005207        1.66205981797600
C            6.14298998777767        8.26917167395064        1.15793177728470
C            4.56313759401444        5.44654337738371        0.48158865991662
C            5.06278750547011        4.92296812946467        1.65445977500593
C            4.20280436528548        4.39428362086265        2.59570589346463
C            2.84432939969711        4.38222363101324        2.35846039083346
C            2.34503641537767        4.89198000376368        1.17875540907093
C            3.20575639806333        5.42730585509857        0.24280853653432
C            6.93643201466589        5.00648798252616       -1.37000440986951
C            8.20993712030165        4.87394391608731       -0.87031369768596
C            9.10215187464506        4.00908168573402       -1.47543548497314
C            8.71344700194375        3.28606130111900       -2.58754175068529
C            7.43715789808663        3.41611201330686       -3.08933933391173
C            6.52109197744672        4.27268593804158       -2.47870272890081
C            2.86692093967633        3.54203805230346       -2.61696626822608
C            1.99811780943063        2.56121445315620       -2.19316015468383
C            1.78146135727510        0.12138239648731        0.56137545639073
C            1.20652096469638       -0.81473078816556        1.38963100134089
C            1.45940928041076       -0.79015829134733        2.74410702397294
C            2.29854086736831        0.17739936109401        3.29595571097533
N            2.38297569920295        0.36682791626524        4.71628433688818
C            3.14891599138112        1.48889776941443        5.21351034214244
C            4.54240652436345        1.48241271699338        5.16062909676830
C            5.26351546345443        2.57907148361229        5.57851333332009
C            4.61045127727471        3.70264401679895        6.04855828058087
C            3.22945998693696        3.72494137417860        6.10004541939056
C            2.50667275921850        2.62871246903174        5.69304673556129
Si           0.66007237992507        2.53517664306998        5.78777839776482
C            0.01077340381995        3.44104968138518        7.27704781421250
C            0.78081719437016        3.51841394957438        8.41773592303326
C            0.28158626368925        4.12699547488101        9.55247770274177
C           -0.99413101436275        4.65427820792155        9.54566362757635
C           -1.77003081866072        4.56924166662156        8.40703698925234
C           -1.26646170603771        3.95972115132848        7.27470186544125
C           -0.07341901331349        3.15106106490316        4.19079089160653
C           -0.43316170401544        4.47315688542550        4.04093284605464
C           -0.92203212636058        4.92621206062646        2.83068820841359
C           -1.03974689094191        4.05708119967968        1.76408955645926
C           -0.66618161304806        2.73651582484822        1.90709423868699
C           -0.19113717112412        2.28873680814601        3.12316474535194
C            0.32979394776368        0.72901901422456        6.02154657699520
C           -0.73998063510215        0.25485888713513        6.74284209359095
C           -0.85502497246578       -1.09792038440774        7.00178749756303
C            0.11246227167328       -1.97150775082424        6.54237618480907
C            1.18539498466494       -1.50014148135128        5.81862512686968
C            1.30537544513742       -0.13934562869873        5.53757272469652
C            2.90453412894561        1.08641783438699        2.43243456853570
C            2.63850876943969        1.06589467662705        1.08341783059134
H            4.19482700753567        0.09618088340755       -1.58487985008033
H            5.76145303095311        1.85155981453586       -2.30132251735929
H            3.80190142932355        5.18789110018046       -5.11368394011389
H            2.81874882351039        7.41443158582555       -5.49609056990916
H            3.08363842623893        9.18185622982126       -3.80645873083702
H            4.34044844852704        8.71565362053914       -1.72992554525976
H            7.88668232741949        7.91133117450135       -1.69000439415105
H            8.99595073836628        9.92957732376935       -0.79874406835444
H            8.26465297107717       10.87676442779613        1.35020673656816
H            6.43473166833099        9.81285127065545        2.60330884057627
H            5.34119942129882        7.79416512512071        1.69701211016464
H            6.12544126079746        4.93879072433490        1.82883622867294
H            4.58998053501279        3.99328067254663        3.51624884189424
H            2.17215956645089        3.96741621666538        3.09023262080264
H            1.28545373609123        4.87127747470262        0.99074070145105
H            2.82737912271642        5.83496762610044       -0.67865747267833
H            8.50411145412605        5.45598576111988       -0.01355968536701
H           10.10119427374202        3.90511668476853       -1.08532855670630
H            9.41166720814426        2.61729469476585       -3.06369182709256
H            7.13116394178134        2.86125419444430       -3.95886594233472
H            2.48881222948231        4.51145543828445       -2.88590330055279
H            0.93957534655605        2.75117809519923       -2.13184507274983
H            0.53878076101263       -1.54881443389173        0.96932581476620
H            0.96968288662204       -1.49472343737895        3.39069400729333
H            5.04274729044656        0.60729171361356        4.78492267990769
H            6.34024797894726        2.56267871990900        5.53427176481795
H            5.17597129276170        4.56139816646189        6.37093993124206
H            2.70876560745821        4.59662294533821        6.45834648180695
H            1.76969774867652        3.09208170263100        8.41588855386200
H            0.88647682906841        4.18758688875271       10.44232101429269
H           -1.38557132951659        5.12965014580227       10.43023103718108
H           -2.76784531604281        4.97641235419241        8.40162228442053
H           -1.86770889758546        3.87839422676892        6.38509294598124
H           -0.32080589227374        5.14817998928679        4.87220908372388
H           -1.20359774993277        5.96020310929195        2.71727406492520
H           -1.41355812349639        4.41178393713760        0.81744882874842
H           -0.71962124708573        2.06291701759887        1.06698701999366
H            0.12682327551496        1.26929404339747        3.24096076682715
H           -1.47553647294147        0.94908450995948        7.11183651380417
H           -1.69310314445487       -1.46896364065094        7.56833901616003
H            0.02719091954174       -3.02534054122632        6.75136218105831
H            1.94489984508702       -2.17391763663868        5.46260503658953
H            3.54181056744035        1.84832420828854        2.84038132684688
H            3.07836186751539        1.80851896437174        0.44122679805660
