67
 energy: -14.568188511929 gnorm: 0.000609160755 xtb: 6.5.0 (97a52f5)
O           -0.74109175108695       -0.80393568343163       -3.63439344098392
S            0.22343838500823       -0.64647509606806       -2.47876595726258
O           -0.22642882180213       -0.91491561417781       -1.05813227826062
C            1.70330503645550       -1.61371576293499       -2.79586739916088
C            1.63755494194422       -2.76966103006889       -3.54117514315983
C            2.78869624123459       -3.49602006811114       -3.78901918623988
C            4.00016748142304       -3.05927185411522       -3.30069162701931
C            4.07809503440995       -1.88855757142834       -2.54622386233385
N            5.33698293883329       -1.36917356634807       -2.07663062978843
C            5.79784272199690       -0.09528954667756       -2.51884569718908
C            5.08308136491749        0.65387602417174       -3.43900738997152
C            5.53204890248080        1.89244582812070       -3.85423935991761
C            6.71302767442415        2.39563096027151       -3.35835557899946
C            7.44698081833002        1.66123287088531       -2.44858794427250
C            7.00926203171528        0.41710677741732       -2.01488121642426
O            7.77181876023567       -0.27740775947057       -1.07495159479906
C            7.30039379428111       -1.51006093762786       -0.62317462501922
C            8.02834110490478       -2.19564832626536        0.33995777745762
C            7.58538508783077       -3.40469846641077        0.83778527031168
C            6.40472998809029       -3.94542271557685        0.38102427440187
C            5.66812232616510       -3.27980048278583       -0.58014139948717
C            6.09934373110182       -2.07109784113969       -1.10007260374286
C            2.90385591877924       -1.18496751836623       -2.29269891016403
C            0.98533291899798        0.97676624441751       -2.54485969976735
C            1.20113656957856        1.61005379678591       -3.74863030586318
C            1.82515369734868        2.84408797810719       -3.77353161549367
C            2.23367270737841        3.43462728164507       -2.59853210604140
C            2.01585695653327        2.80167080401410       -1.37458194946993
N            2.44992595027748        3.39209613543471       -0.13098101736596
C            1.65749432293605        4.38660599772158        0.51083069980912
C            0.60304854780347        4.99778669680693       -0.14628295986087
C           -0.17615764365011        5.94709912898730        0.48698444164792
C            0.09112135084479        6.29479946381852        1.79201114869681
C            1.13520261659041        5.69343925755250        2.46653726411287
C            1.92939844260120        4.73683992968027        1.84849218171306
O            2.96439078723426        4.14483332671144        2.57327901472176
C            3.76454514923840        3.20251997154163        1.92656914277088
C            4.82053396715302        2.62493713860681        2.61902685265906
C            5.64789100819686        1.70141383989550        2.01197434898993
C            5.43333332442000        1.34491839445223        0.70109675184306
C            4.38552609026764        1.90351003746125       -0.00445454930981
C            3.53804626255702        2.82238159101469        0.58884340685544
C            1.37548578826636        1.56324568310091       -1.36995835302871
H            0.68683854143605       -3.09230610105255       -3.93162793119444
H            2.73827252297656       -4.39933398681724       -4.37423800724757
H            4.90429642121468       -3.60324643210781       -3.51037559852194
H            4.16433668676418        0.26129495543979       -3.83504242418673
H            4.95833593894063        2.46264039413100       -4.56562250663476
H            7.06534377474199        3.36194714452581       -3.67986970457407
H            8.37039716426187        2.04431366430927       -2.05272651998708
H            8.94433294489727       -1.75874432708597        0.69541489308123
H            8.16189545738701       -3.92216266237407        1.58696091313129
H            6.05426069056016       -4.88582321668322        0.77285892837096
H            4.74051888057410       -3.69740876989497       -0.92774386208024
H            2.95985363437101       -0.28444163683528       -1.70984655774734
H            0.88539837489616        1.13293234926244       -4.66123546966310
H            1.99689608441859        3.34059316185694       -4.71419954654398
H            2.73218872096491        4.38779296992730       -2.60771723106528
H            0.39260530737921        4.72076823920596       -1.16366640121464
H           -0.99264445388038        6.41291868485593       -0.03956493071494
H           -0.51614873046845        7.03371843825605        2.28863331790426
H            1.35024582379536        5.95345577356022        3.48761166606950
H            4.98337100579968        2.91882812556093        3.64051703192591
H            6.46614424276681        1.26640593489509        2.56197245560422
H            6.09362546439796        0.64524469083720        0.21849962971189
H            4.23354267813475        1.64460252075308       -1.03650408450857
H            1.19411029716256        1.06321476809655       -0.43489223579385
