67
 energy: -14.805614426010 gnorm: 0.001318309619 xtb: 6.5.0 (97a52f5)
O            0.24468421640309       -1.14151790898548       -3.99960369902251
S            0.78162004930191       -0.83563724187592       -2.61805176347630
O           -0.16551568243810       -0.52444857559607       -1.47999792762015
C            1.88344956784004       -2.16063904509602       -2.10737066989318
C            1.57007248905041       -3.47261978578280       -2.38275484351497
C            2.43948116214381       -4.48227468778829       -2.00873477293611
C            3.62001266485434       -4.17817123144691       -1.36719708570080
C            3.94134757581836       -2.85302876804191       -1.07234455688307
N            5.20140215674386       -2.47121932397994       -0.47965683145424
C            6.07845331859336       -1.67454500425398       -1.29148955245191
C            5.89228634504397       -1.60754472486182       -2.66732402229497
C            6.69459514759821       -0.80948804940374       -3.46403820709540
C            7.70556001778000       -0.06150988007675       -2.90122463913924
C            7.91848708999432       -0.11797049202448       -1.53502884857366
C            7.11677321077447       -0.91516204359992       -0.75415389671180
S            7.41362335765058       -0.94992336770105        0.90692634111190
C            6.41533563244587       -2.09205046378176        1.64754636943489
C            6.61273691950237       -2.33608409042313        2.98526329028618
C            5.80829542723703       -3.25128804325288        3.64077517885985
C            4.81210026599611       -3.90167220551188        2.94555955543524
C            4.62251957990796       -3.64805473048031        1.59810461856195
C            5.42550360662431       -2.74558182067665        0.91196937131830
C            3.04715895472639       -1.85565036648776       -1.44975616046672
C            2.01068129550265        0.46578566142327       -2.72857489364900
C            2.82500778360967        0.57426316278550       -3.83420227166663
C            3.80565174937659        1.54845975646992       -3.87153038318849
C            3.96636519673178        2.40533985413026       -2.80613930331706
C            3.13717961744370        2.31112487057865       -1.68805033116368
N            3.28777865193459        3.21302441747151       -0.56784926622880
C            2.42962975277199        4.36078285843257       -0.51349845277086
C            1.45752107013963        4.55841231005294       -1.48680083920678
C            0.62659683231970        5.66486995831537       -1.45939908266359
C            0.75161322045035        6.60095723108744       -0.45598608832751
C            1.71318522420275        6.42845310756797        0.52495895774870
C            2.53273413329956        5.32533840123304        0.48932631232663
S            3.67344311843463        5.16680314155431        1.69724504461724
C            4.52732906620856        3.74445184543083        1.51073250019503
C            5.47758670571137        3.44516670324513        2.45800952255731
C            6.20547802017580        2.27332807359204        2.35149279742066
C            5.96955902635368        1.42113407232165        1.29666014804206
C            5.01456343292922        1.73130962729154        0.34526319174601
C            4.27104123913864        2.90164874544710        0.42794224882543
C            2.14982078764890        1.32645755988648       -1.67190103022472
H            0.65325401910636       -3.69908311617491       -2.90127375119142
H            2.19775356764636       -5.50809743803692       -2.23178041650289
H            4.31913216932202       -4.95448646346753       -1.10989651387273
H            5.10818149570532       -2.19112540079734       -3.11559468075768
H            6.52876819887377       -0.77508340910388       -4.52805860946889
H            8.33036830213060        0.56112455663758       -3.52033202257201
H            8.70415567258792        0.44984192902110       -1.06464222133086
H            7.39627795616130       -1.80522960678807        3.50051059231425
H            5.95821846974276       -3.44972491119860        4.68918555868385
H            4.17684781605468       -4.60847934655138        3.45320820770000
H            3.83188070424507       -4.15063722851436        1.07213473634395
H            3.30566785679462       -0.83486448193407       -1.23770803683517
H            2.69641194380241       -0.11137807538261       -4.65502602158262
H            4.44670912458302        1.63337065660588       -4.73340597780263
H            4.72820149443790        3.16465309191837       -2.82198943868275
H            1.35376128489421        3.83398856116291       -2.27449590710238
H           -0.11995160465926        5.79425080571445       -2.22538494762110
H            0.10540876466766        7.46299832274610       -0.43357617811477
H            1.83680316277665        7.14226722915898        1.32302844946499
H            5.63511461158530        4.13357093258267        3.27237753073954
H            6.95137350565726        2.02907971555559        3.08974490570475
H            6.55142603695931        0.48278656188843        1.20946290927069
H            4.84334147472718        1.05686995551607       -0.47436359958393
H            1.50514497411681        1.23378765221304       -0.81558059604084
