78
 energy: -16.798520016543 gnorm: 0.000872637111 xtb: 6.5.0 (97a52f5)
O            4.28699784458585        0.28266441912824       -1.29705564245110
S            5.32995557328523       -0.22146699758955       -0.32168343435265
O            6.80219877635915       -0.04376649817648       -0.62998103639144
C            4.99345779648835        0.43729072464755        1.31292513274825
C            5.82309726558917        0.12139054728604        2.36355042583904
C            5.55840022143177        0.62286855794581        3.62248703922903
C            4.46302490403898        1.43885862918688        3.82214381156722
C            3.63366189854767        1.75472215949395        2.76503559841119
C            3.90235452110032        1.25112973537971        1.50790520151834
C            4.99704617698907       -1.95048836653878        0.02736351729347
C            3.77323136319040       -2.32977173452175        0.52803041521684
C            3.52014342188439       -3.65713126171964        0.79840061409441
C            4.49188550121853       -4.63006190116441        0.56547420589201
C            4.22106805484640       -6.05638342185891        0.84708172158055
C            2.94452733693269       -6.60483716814438        0.59580501061994
C            2.65891988308367       -7.92125739277589        0.84710522858693
C            3.66360739513399       -8.74168238799929        1.35819585739391
C            4.94007650135004       -8.21468643887033        1.61622461274474
C            5.21729958848718       -6.87525860433519        1.36102410007193
C            5.74848430953346       -9.29117166007399        2.13956366246804
C            7.07828632935767       -9.35071395232973        2.54467851641381
C            7.60136435984445      -10.55428329061518        2.99661811297094
C            9.01422414378336      -10.64450123201952        3.42516687521979
C           10.02179538722057      -10.00374695612865        2.70504441957067
C           11.33808084204144      -10.10080717201267        3.10168874675004
C           11.66979804821661      -10.83245855143931        4.21779063997802
S           13.38744678881516      -10.97013996433705        4.71965996314665
O           14.24559619112127      -10.07629850798118        3.84956514190961
O           13.47276262794197      -10.86766286250081        6.22799786654903
C           13.62006836661364      -12.67857039216141        4.22066198074046
C           13.70710500219310      -13.66362000287138        5.17619612740438
C           13.87403255289385      -14.98032539212330        4.79573498327190
C           13.95324694359632      -15.30309921086578        3.45604797447296
C           13.86855931288869      -14.31160784021610        2.49943965650671
C           13.70184895538472      -12.99631845229604        2.88491475759842
C           10.69086400776734      -11.46620371198184        4.94710990038224
C            9.37219713243433      -11.37610674722459        4.55696989788949
C            6.77035732713750      -11.69486573514953        3.03316220450864
C            5.45935811390833      -11.64810026976340        2.63715992654488
C            4.93594533413920      -10.43639289538098        2.18779876268290
N            3.65345029011159      -10.10479110913801        1.71082805664253
C            2.52985617903651      -10.99624667709171        1.60899706607177
C            1.84483533441303      -11.13446753447964        0.40786386477542
C            0.76988143867493      -11.98929750853954        0.31158622033122
C            0.36334772456341      -12.71638900659880        1.41252967257163
C            1.03504171356631      -12.58672552723032        2.61171585501865
C            2.11105696892645      -11.73343564646924        2.71003193795573
C            5.72482665372135       -4.22214998422224        0.05723698414094
C            5.97120341213054       -2.89203963624990       -0.20693068779641
H            6.67517137041398       -0.51544340776868        2.19279532530258
H            6.20664355828511        0.37719130240611        4.44739849862220
H            4.25504760850518        1.82997958530858        4.80449818703327
H            2.77868497668697        2.39207459999745        2.91965074858398
H            3.26580612585963        1.48752684231053        0.67144701956070
H            3.01949948574615       -1.58134907154415        0.70711310878810
H            2.56900615376263       -3.94966055672718        1.20753750912917
H            2.18257464441484       -5.96788541012499        0.18154589989492
H            1.68152510644939       -8.32759347579250        0.66032502228599
H            6.19242695255195       -6.48059404859167        1.57712398975044
H            7.68847029883405       -8.46734048068335        2.51432564224642
H            9.76358017125340       -9.44472330131690        1.82263674814277
H           12.11896888326319       -9.61104310098341        2.54406286000303
H           13.64310438251558      -13.39421556395480        6.21729847931271
H           13.94169002994777      -15.75374101726591        5.54293603602122
H           14.08323621092637      -16.32990147498710        3.15603439155348
H           13.93144343505115      -14.56283256357667        1.45347248820774
H           13.63560579504740      -12.21183411949691        2.14951353683230
H           10.96657461504132      -12.02850066151665        5.82370808276042
H            8.60457964174571      -11.86142149946481        5.13417287167976
H            7.19142932901203      -12.62724377185699        3.36707605771891
H            4.83665797088578      -12.52402776231761        2.65613618168493
H            2.17566631215291      -10.57219297604716       -0.44761974404199
H            0.24788161102884      -12.09242082649597       -0.62542956236411
H           -0.47792313890514      -13.38534283415389        1.33549824583374
H            0.71611938461478      -13.15247933095493        3.47158400395384
H            2.63381307192494      -11.61764150379377        3.64318694252218
H            6.48252959536450       -4.95917911296639       -0.14349724253095
H            6.92339060113710       -2.57537962749241       -0.59904279470557
