59
 energy: -12.574553187137 gnorm: 0.000234179748 xtb: 6.5.0 (97a52f5)
O            3.38823026361313       -0.01695025383525       -1.78574041924775
S            4.41935365905625        0.11346253427269       -0.68185933528474
O            5.89086244756679        0.17933440811043       -1.04051342551683
C            3.97666210873954        1.52542596004780        0.33647101957007
C            4.91639239238552        2.49323151152814        0.60391773207536
C            4.58650874291177        3.57357549639489        1.39798288583450
C            3.31307393589683        3.67776712689096        1.92070024713718
C            2.37138740387786        2.70560108112730        1.64825495449560
C            2.70559914437652        1.62751989979198        0.85282604741924
C            4.18952312393770       -1.18490625148420        0.53502187819907
C            3.49400714907350       -2.23957069764343        0.13326829070779
C            3.18138645544091       -3.41109500274720        1.00856685139541
C            4.03660684096620       -3.08642574023790        2.97959836470052
N            4.11405622241152       -3.72997406615820        4.39285872664618
C            4.05635791365863       -2.87443286779729        5.53501317617903
C            4.99554044286975       -1.98277437366377        6.07158712586814
C            4.62607106426634       -1.17065897099071        7.11275136863491
C            3.33193381803202       -1.21361300559566        7.64336867485402
C            2.39781807477679       -2.08669809090724        7.15015268660395
C            2.76455022168860       -2.94149262811549        6.10507875007385
C            2.02336870015309       -3.91940987914925        5.32800781520639
C            3.04094831509418       -4.67663325844303        4.64632127459332
C            2.40686841262504       -5.24344733699511        3.45527606310319
C            3.27903411001668       -6.04256804995246        2.58505365235219
C            4.27885377838302       -5.49064909050095        1.90092287555767
C            4.40939657107199       -4.00570645617829        1.75818435501482
C            2.57121874429733       -3.02395894642337        2.37359357884743
C            1.66497154728161       -4.07526422163005        3.06057335243891
N            1.08401720232435       -3.59462798446870        4.28035962694758
C            0.24960267799337       -2.41479959120974        4.34038335759597
C           -1.12957096899069       -2.53373895793724        4.23141845016896
C           -1.93201145506146       -1.41461523551946        4.26389849991474
C           -1.36735256381589       -0.16207919229854        4.40213196001615
C            0.00302178462368       -0.03108079654896        4.50715477141505
C            0.80573473320700       -1.14895804667062        4.47506344659717
C            4.72826700391892       -1.75682048891881        2.90495342570015
C            4.78205264621137       -0.96147297868819        1.83774041835512
H            5.90642986641255        2.39393687760556        0.19077974222996
H            5.32209922330373        4.33213856103285        1.60932123392144
H            3.05374940365857        4.51965879262114        2.54139001518811
H            1.37725166364476        2.78717356404207        2.05568355374066
H            1.98131910128510        0.86091489808019        0.63276981208058
H            3.11959789571365       -2.24712157580285       -0.87792942751223
H            2.58826428435545       -4.18591279018350        0.49637215430254
H            5.99900497877321       -1.96674188112912        5.68517919151740
H            5.34393081093026       -0.48397919372918        7.53020346739037
H            3.06827949094446       -0.55221204091239        8.45198912804233
H            1.39845410490714       -2.12520773976897        7.54606306881198
H            3.16803135437891       -7.11445337806802        2.60822163123646
H            4.93526799944532       -6.11576112257027        1.31910784946773
H            5.36479019197375       -3.70418634532862        1.30210043331934
H            2.14430762517089       -2.01244937024480        2.38384494095935
H           -1.55891896226891       -3.51407269055114        4.12065778235639
H           -3.00152793497645       -1.51701829186823        4.18085886662302
H           -1.99608735798168        0.71271373876060        4.42729661963799
H            0.44489564293449        0.94575945742082        4.61443376265199
H            1.87414505879094       -1.05567798752623        4.55545092635359
H            5.22094798659453       -1.43114288106121        3.80013202819816
H            5.32249490711411       -0.03344415820112        1.93473069533146
