31
 energy: -6.079906976183 gnorm: 0.000373915784 xtb: 6.5.0 (97a52f5)
O            1.96049439889695        0.51402924722661        1.55638364499804
S            1.49515557391380       -0.03279981129602        0.22658011485517
O            2.10468786405492        0.48033672989020       -1.05791391993707
C            1.53842323621589       -1.84027382024868        0.25522373756952
C            2.80446615545134       -2.54928592583393        0.33934604409462
C            3.98011851992434       -1.84202012869504        0.63772652649742
C            5.12388426144339       -2.63914571546246        0.67415110998084
S            4.60836786797769       -4.15012581228682        0.33266663262095
C            2.93334597501195       -4.00583380889516        0.09852883801700
C            0.27123671330192       -2.33294204072454        0.18349226242277
C           -0.09123812440093       -3.77753935684288        0.24658234014435
C            0.14418412684189       -4.52186861521965        1.40879106794217
C           -0.26616243240686       -5.85334185316926        1.30687853885306
S           -0.88372497792962       -6.00082834911981       -0.19705823535528
C           -0.72263662624426       -4.46313841360129       -0.90316120261318
C           -0.76745650483624       -1.29758587055529        0.09311345370117
C           -2.14200586879186       -1.51096183090758        0.00715546359501
C           -2.99617249351581       -0.43057085887095       -0.05900797678774
C           -2.49845604808528        0.86090035666030       -0.04082780226651
C           -1.13621599035442        1.08030510883159        0.04437414459392
C           -0.29282481580583       -0.00018056208273        0.11034492219645
H            3.98497738581332       -0.77815434278865        0.83560956978423
H            6.13479939415923       -2.34363666070362        0.88353738744472
H           -3.10472100220064       -4.01980370232903       -4.75778892522723
H            0.59954178834281       -4.09953708098659        2.29487624639786
H           -0.19938521943137       -6.62888836967669        2.04662037021084
H           -0.23356561220173        1.08802887822245       -4.31216050832633
H           -2.52061373615351       -2.51719029746736       -0.01092596597133
H           -4.05916477532003       -0.59312222302200       -0.12651662249710
H           -3.17424087762272        1.69850388788519       -0.09370136861260
H           -0.73181815658365        2.07794124189257        0.05942011181068
