95
 energy: -20.814520761540 gnorm: 0.000322282642 xtb: 6.5.0 (97a52f5)
O            1.54554788463445       -1.97559509813475       -1.64209350480502
S            2.76145140251320       -1.36502371068052       -0.98705791309753
O            2.86560664941551       -1.24563185139264        0.51506426970706
C            4.27159392064918       -2.10443006317961       -1.65070656233596
C            4.98243110026697       -1.18222214137050       -2.32252627526725
C            4.38936829289790        0.13662889247468       -2.41152338190005
C            4.89297989169796        1.24742460018848       -3.08637192108110
C            4.15350099002532        2.40432070140120       -3.11697134626356
C            2.90602782957951        2.48685489017068       -2.48610681870462
N            2.11932625414472        3.67544949847629       -2.58603340232074
C            1.19929367212956        4.02804009735121       -1.54216860523838
C            1.53801154912081        3.85162661626567       -0.20326706343421
C            0.64929506982928        4.18062345673252        0.79491938008077
C           -0.59231094371009        4.69347953862358        0.47503260238415
C           -0.94192982272359        4.87836016472134       -0.84791421819394
C           -0.05499596699534        4.54990952239806       -1.84772237552931
C            2.17494022109647        4.47613477153659       -3.77723701671290
C            2.26203854736826        3.88012423866064       -5.03287719219666
C            2.30182813574417        4.64841655752676       -6.17399704929778
C            2.25366116452769        6.02537101546937       -6.08260111890103
C            2.16439871526392        6.63167234590388       -4.84506670062754
C            2.12440499245257        5.86535778884268       -3.70235237613175
C            2.42373898461514        1.37081508858455       -1.79515157909674
C            3.16095258713644        0.21969830770410       -1.76890163913048
C            6.24362908614185       -1.81674718591059       -2.90576777666137
C            7.53118337323369       -1.17091568464709       -2.39733103310359
C            8.24317655164673       -0.68740700521939       -3.42987603649274
C            7.54276328425527       -0.92458134648167       -4.68106585135663
C            7.87616226063119       -0.58232598206657       -5.98549881787136
C            7.01587225927412       -0.93544028849176       -7.00374727512277
C            5.83943462312281       -1.61930433615380       -6.73512069667865
C            5.50070399745997       -1.96521140679288       -5.43918743483674
C            6.35570686335339       -1.61952281418310       -4.41649284001008
S            9.78916731249037        0.03664335487930       -2.83509508930298
O           10.96905926534460       -0.75807448379052       -3.34207077255241
O            9.74140298069273        1.54002912535991       -2.97141162338461
C            9.39572200382496       -0.45023515910199       -1.13477213863353
C           10.15301609360951       -0.30483116746678       -0.00566318653778
C            9.66973459598123       -0.77786618003291        1.21848083807081
N           10.47453241879510       -0.70067274882524        2.39633039686338
C           11.44270714725187        0.34815780297715        2.54946685133931
C           11.15240922742044        1.65150130703804        2.15512122202203
C           12.08428009842530        2.65363567072297        2.30292797564973
C           13.32158799721051        2.37352176866634        2.84842614503480
C           13.62415257999908        1.08644998176554        3.24655014743751
C           12.69399014809868        0.08282633589651        3.09962591568662
C           10.38116443010385       -1.72277633312340        3.40122817194568
C           10.22282709206288       -3.06002629509044        3.04614700888741
C           10.14413329994407       -4.03854787164256        4.01069187790257
C           10.22410212966223       -3.70041442690305        5.34708106590441
C           10.38523504187080       -2.37939071884744        5.71565010005308
C           10.46400801720894       -1.39897858999189        4.75276491665275
C            8.40114833221046       -1.36940867743980        1.26102390269994
C            7.64222348369693       -1.51250874227204        0.12542267079575
C            8.14658040974872       -1.05555040321957       -1.09093505044433
C            6.10960787882949       -3.27275548642514       -2.46290500847368
C            6.93578868507868       -4.35682506028375       -2.65986454297136
C            6.58710327772342       -5.57030729385322       -2.09450469096666
C            5.42976488040695       -5.69657789733049       -1.34054336060125
C            4.59855059734579       -4.61551400602469       -1.13538669523593
C            4.94239533015127       -3.39281188649400       -1.69805146026442
H            5.84492101840039        1.17864986642753       -3.58200986563726
H            4.52893193888440        3.26972303951518       -3.63342209312539
H            2.51047628997506        3.46068250562401        0.03982772100819
H            0.92290783686672        4.03836965407108        1.82727814181704
H           -1.28780935402874        4.94980279535391        1.25730315566565
H           -1.91075086327239        5.27820334121370       -1.09783405532071
H           -0.32540669565887        4.68230727766115       -2.88058174518950
H            2.28503155233140        2.80642711426856       -5.09830338790182
H            2.36838900840003        4.17488069514731       -7.13954398378153
H            2.28429531700338        6.62620138998338       -6.97671990099659
H            2.12591390820816        7.70607682608047       -4.77412544934166
H            2.06026885820920        6.33094411391277       -2.73457200970284
H            1.46408945002713        1.40701863510012       -1.31360590337539
H            8.79009790463330       -0.04980153533529       -6.18167767979653
H            7.26031738678498       -0.67519220966847       -8.02028820432465
H            5.17928456316653       -1.88291114490773       -7.54498533289316
H            4.58662012434832       -2.48794176810698       -5.21894047137083
H           11.12798360908611        0.14240357620084       -0.06493746070502
H           10.18257080288070        1.86579156717615        1.74151810032711
H           11.84764389002914        3.65838467016760        1.99412693916702
H           14.05052827062095        3.15885888532138        2.96361245682636
H           14.58985057512932        0.86722532180434        3.67119253134126
H           12.92677085283380       -0.92390011535846        3.39936505862083
H           10.17496307858879       -3.31890884276411        2.00295159435942
H           10.02162754346497       -5.06953538279798        3.72265134842032
H           10.16274270623420       -4.46729919302417        6.10172136774187
H           10.44906279820671       -2.11589643500703        6.75841046045284
H           10.58468509464065       -0.36726755172418        5.03295369955933
H            8.02459556463078       -1.71584303864154        2.20694616950000
H            6.67333036674099       -1.97830906193501        0.15491966424218
H            7.83578338570570       -4.24568778226124       -3.23866207207998
H            7.22485299973638       -6.42666098561736       -2.23983242577288
H            5.17732915865160       -6.65071456984349       -0.90842667829501
H            3.69927288253844       -4.70126275534986       -0.55115570681569
