49
 energy: -10.803017214711 gnorm: 0.000641680069 xtb: 6.5.0 (97a52f5)
O            4.56194008746111       -3.55482124015907       -2.47565449232947
S            3.52505905485897       -2.48236689889395       -2.70969886027953
O            2.22613957510354       -2.78755166884849       -3.41715588731346
C            4.29412807763491       -1.02272766324512       -3.44858913165990
C            4.27522108614681       -0.00366975943140       -2.57752547459803
C            3.66434113617834       -0.27602488775941       -1.28542493173653
C            3.51767042872268        0.60736063361831       -0.22112250417480
C            2.90952397687386        0.16849623657693        0.93547570469787
C            2.44961225731041       -1.13424532737336        1.03680313226244
C            2.59264115582955       -2.01353758581865       -0.02183823293431
C            3.19859103161080       -1.57650369164497       -1.17352742070726
C            4.91861652608370        1.23355045439199       -3.20071949475026
C            5.31985573537636        0.72915346214928       -4.58584750398758
C            5.93624369615940        1.36902256143247       -5.63870594715012
C            6.16198100317875        0.66256524169071       -6.80598176805927
C            5.77510119653361       -0.66397101008687       -6.91875323289869
C            5.15529281845004       -1.31148545477887       -5.87024708115748
C            4.92555411029839       -0.60914079563240       -4.69521829993034
C            6.08333324139895        1.77931085913775       -2.37512576823318
C            7.25424459909927        1.17826521599889       -1.96742955192356
C            8.13589675743309        1.90133950465532       -1.18511372465907
C            7.85024544956508        3.20628631641103       -0.81433928039074
C            6.67911138538755        3.81492525863119       -1.21696476795320
C            5.79013938918676        3.09568490729388       -2.00227580909433
C            4.48714649975486        3.47025825646480       -2.54902631479774
S            3.40280426810998        4.84239018897767       -2.57046548643842
C            2.22145091595870        3.97509150666653       -3.54294038521337
C            0.98887699991389        4.40313894447256       -4.01977397656533
C            0.22178918269410        3.54270582579801       -4.76739599235077
C            0.66499092169845        2.24913286504005       -5.04909936114252
C            1.87759891473727        1.81098686109016       -4.58619118721714
C            2.67071092650776        2.68104020103887       -3.82543962014113
C            3.96445336490503        2.42459973146644       -3.24850935422275
H            3.87917932796280        1.61561376187703       -0.31700888844626
H            2.79133175373900        0.84491944161712        1.76580115537906
H            1.97704769703082       -1.46580820485434        1.94659633883533
H            2.23962056784175       -3.02824524480818        0.04591873746663
H            6.22746411065718        2.40000353587398       -5.54145975289134
H            6.64302674373766        1.15060506943098       -7.63745374073893
H            5.95982574222955       -1.19620753071706       -7.83732428353481
H            4.84881592984731       -2.33963756245718       -5.94757636488104
H            7.46298959495177        0.16275070954217       -2.25450218801837
H            9.05463325602408        1.44285363795845       -0.85802654666336
H            8.54995368893791        3.75148723455871       -0.20282176103857
H            6.44444820127650        4.82537070559972       -0.93215841525238
H            0.65233708191141        5.40074013834735       -3.79806970178415
H           -0.73442860934475        3.86925868777183       -5.14187639780067
H            0.04674626604859        1.59005954960112       -5.63561760689503
H            2.23096287689208        0.81590702129502       -4.79041857678334
