38
 energy: -8.136258988200 gnorm: 0.000747586203 xtb: 6.5.0 (97a52f5)
O            2.44740326371633        0.61010159298765        4.21245432805214
S            2.17606466796610       -0.09855499922212        2.91865419325427
O            0.76478159678357       -0.14537258421738        2.42301868237271
N            3.23935336829713        0.47204643950491        1.71253174163719
C            4.60032191882745        0.27688526272839        1.94022849781791
C            5.52352447652767        1.18530425271307        1.40610357708858
C            6.86630917391684        1.05246136499465        1.63146235207750
C            7.37198291414226        0.03158009576977        2.44712510010006
C            6.45534309136095       -0.85357666833279        3.07762370978654
C            5.08545712726152       -0.81988287209073        2.70303303593296
C            4.17940600173485       -1.95490429911001        2.95841544632083
C            4.65305992639883       -3.26923064543021        3.02087788302958
C            3.79191010271600       -4.32514476318128        3.21604273948368
C            2.43563115343307       -4.10001307924273        3.33643795272759
C            1.94566374126008       -2.81200689745412        3.24816827014577
C            2.80763447193193       -1.76204494899151        3.05529815832660
C            6.93588937111179       -1.68246193022467        4.19840065417872
C            6.11204844539829       -1.99375397702334        5.28464433443808
C            6.58601055672361       -2.73294371424244        6.34465297428958
C            7.89647198641128       -3.16611901063597        6.35691802353204
C            8.73329152901700       -2.84420194016354        5.30683564548017
C            8.25658846587289       -2.10778316976314        4.25181791647579
S            9.33641896828582       -1.66721785466365        2.90117907948056
O            9.01513692050373       -2.55432837917188        1.73537186307471
O           10.74837562565969       -1.64264594103011        3.39610995425135
N            8.75051905279489       -0.09201510539834        2.61183892498616
H            2.95041256778860        1.40505278841401        1.51652658926417
H            5.15861215260553        1.99185184677474        0.79455326607547
H            7.55700638326237        1.74825324553852        1.18817366269630
H            5.70617330804519       -3.45239678842813        2.89563423357660
H            4.17657706711619       -5.33057616077124        3.26728243938371
H            1.76032940010601       -4.92693759662550        3.48676041076643
H            0.88733972115158       -2.62020145409148        3.31817226646883
H            5.09882704994566       -1.63082977292685        5.29366080104312
H            5.93442228575777       -2.96812193143081        7.17029879030194
H            8.26892946309458       -3.74283887830202        7.18815776883566
H            9.76536889574744       -3.15528164112382        5.31064405876337
H            9.31856378733033        0.27948011386527        1.88339067448702
