111
 energy: -21.279362060239 gnorm: 0.000482400596 xtb: 6.5.0 (97a52f5)
C            1.23430894486389       -0.49241684745334        0.33778608678146
C            2.72473295045458       -0.25309835077739        0.02974813151524
C            2.97974975771198        1.26691928293823        0.03341086877122
C            3.59031791347246       -0.89445056249999        1.12986340580381
C            3.07458695536867       -0.89000634634615       -1.32471350146878
C            3.60895790541523       -0.13792652356879       -2.38876639580629
C            3.91924417547441       -0.70488205769675       -3.60054616099567
C            3.69929063871493       -2.06771123339255       -3.78053937170789
C            3.16798094418979       -2.83592179968588       -2.73389121734055
C            2.86170065880560       -2.24355824800459       -1.50851058013611
C            3.03708313876604       -4.18972668737803       -3.22043370638230
C            2.58692686657496       -5.36403765942514       -2.61694910552613
C            2.58165526107517       -6.54765798991435       -3.33099406903570
C            2.08872229412356       -7.83284933129233       -2.64689961630677
C            2.95795474781377       -8.11573793488297       -1.40700472387595
C            0.62064535792595       -7.65012447913510       -2.21901430707603
C            2.17305415175664       -9.05263776616245       -3.58515980212732
C            3.03163470551145       -6.53512462829296       -4.66550936606012
C            3.47684467743845       -5.38809806274617       -5.27612006007713
C            3.48168914375658       -4.19953244034817       -4.55131244504970
N            3.89567513125595       -2.89841242882177       -4.90239905217152
C            4.41440596476474       -2.48030000574342       -6.17630372899508
C            3.68221956029708       -2.68114421463642       -7.33854093323233
C            4.16023207379100       -2.25603882289825       -8.56707239931803
C            3.34658848353194       -2.46238135954238       -9.78752204597546
O            2.19513432560512       -2.84864073359094       -9.71551450944673
C            3.97756936420166       -2.17616423653465      -11.11298995055627
C            5.10527066916631       -2.89748113928100      -11.48884115865389
C            5.71082753862775       -2.63145900422313      -12.68681012181243
C            5.16375947886671       -1.64775060888592      -13.47550033849872
C            4.04483479130570       -0.98716745504881      -13.02685235171885
N            3.43796569026704       -1.22074322328522      -11.87470246227063
C            5.39295097547948       -1.62076322068560       -8.62198217678595
C            6.14707734749835       -1.41671441153475       -7.47617348282646
N            7.43056543799174       -0.77661691693984       -7.55762660469014
C            8.64420377616924       -1.27902838470905       -7.04386520487637
C            8.93139722317245       -2.44532617148064       -6.33937636900978
C           10.23356151904774       -2.70481005377314       -5.98760933354100
C           11.28770644335604       -1.83172864582280       -6.31885051015534
C           12.74609858926518       -2.12740150945548       -5.93362783943337
C           13.60416863382212       -2.20735672425482       -7.21050940209952
C           13.27141341010330       -0.99880052721814       -5.02694853492289
C           12.88150969684311       -3.46238992737430       -5.17552738914974
C           10.99712512697766       -0.67553377786881       -7.01830808633967
C            9.68032034487950       -0.39637432695568       -7.38422160397822
C            9.09006950122087        0.69202030251783       -8.12729990622304
C            9.63625139427678        1.84036899159044       -8.70053623094592
C            8.81834127017237        2.73419006475365       -9.36581557591828
C            9.43753176794654        3.99646718212524       -9.98671658410992
C           10.11444117216518        4.82811520806847       -8.88086586521937
C           10.48408678646114        3.58471633218385      -11.03900040267026
C            8.37740055047078        4.87788792291241      -10.67551929812051
C            7.44021561380402        2.45696357261677       -9.44988641111909
C            6.88599579410138        1.33034667723017       -8.89316585741769
C            7.71472538798922        0.43278840633861       -8.22490339895969
C            5.64647875709533       -1.84931718564606       -6.25806265844475
H            0.95341498218687       -0.03186662843148        1.28448648926835
H            1.00822700800892       -1.55545297671795        0.40626234386865
H            0.60645265335326       -0.06597897641481       -0.44392664942282
H            2.71647025853479        1.70012781984653        0.99799983385204
H            2.37976602579260        1.76677677251072       -0.72641837511276
H            4.03022406900105        1.48993940611232       -0.15024973409822
H            3.37586873282979       -0.45200999704266        2.10222868039589
H            4.64945921077452       -0.74971164804745        0.91910717715536
H            3.40696119549876       -1.96551411159058        1.20302835880858
H            3.78027383703486        0.91527219207966       -2.25646969991822
H            4.32047379663615       -0.11922432210479       -4.40834603053844
H            2.45770616845044       -2.84942373939182       -0.71901792023727
H            2.25078107500394       -5.33469887033440       -1.59726704930723
H            2.88637461833928       -7.30843408584478       -0.67962901773936
H            4.00540149753096       -8.22189866886993       -1.68758760599688
H            2.64572632030331       -9.03583425590501       -0.91386734547730
H            0.51436457162958       -6.83208891123868       -1.50796634668348
H            0.23693120576473       -8.55387650522244       -1.74655894131447
H           -0.00667826948673       -7.42774593902368       -3.08163768364492
H            3.19896183101826       -9.23069295985009       -3.90601860767767
H            1.55138215743292       -8.91221282603758       -4.46881490570108
H            1.82590383656365       -9.95321409413250       -3.07929425271944
H            3.03051728776413       -7.44982321734194       -5.23067747080779
H            3.82344605128875       -5.39190399087933       -6.29417153079584
H            2.72164310020834       -3.15904399739440       -7.28430421268286
H            5.49120002866988       -3.65771091759216      -10.83133933618486
H            6.58712570598054       -3.17505771365757      -13.00086296384716
H            5.60364093072977       -1.40032575274695      -14.42787182608736
H            3.61456095053450       -0.21279246187681      -13.64396245343848
H            5.78106297797611       -1.28710692119969       -9.56612618153541
H            8.13720130960905       -3.12564840413895       -6.08889108149934
H           10.44811377863028       -3.60757132897939       -5.44438117044333
H           13.59160113342782       -1.26527136129881       -7.75668285033068
H           13.23192431139361       -2.98545049890280       -7.87619518084856
H           14.64147304064014       -2.43770319120108       -6.96928131934540
H           13.25220984735359       -0.03791984355619       -5.53920874715011
H           14.29886834117477       -1.19185178329621       -4.71985864372939
H           12.66127690540827       -0.91171890835360       -4.12847820370598
H           12.53601174988420       -4.29663801322913       -5.78526983465698
H           12.30859752390910       -3.44781459481738       -4.24894559034573
H           13.92210914586482       -3.65446160863316       -4.91528938187826
H           11.77525564319381        0.01239873024660       -7.29192458625189
H           10.69203132583866        2.01841116223247       -8.61553428988300
H           10.91645209920627        4.27014502352226       -8.39977334275188
H            9.39329808866415        5.10687054746251       -8.11314074685174
H           10.54385614791652        5.74276363336743       -9.28855439061815
H           11.28938838012815        3.00443907954771      -10.59086886249104
H           10.92782406980598        4.46081287741247      -11.51101180627175
H           10.02690693218029        2.97639335303819      -11.81879390495176
H            7.62124118635653        5.21003320156188       -9.96486367401568
H            7.88305909172107        4.33882536842882      -11.48304979818667
H            8.83617534395041        5.76726123019718      -11.10676987426112
H            6.79422301890596        3.14595073356063       -9.96375272980933
H            5.83066703991119        1.13440718361050       -8.95844319687244
H            6.21755994832380       -1.68870426752137       -5.36313981957069
