63
 energy: -14.124567118183 gnorm: 0.000483720656 xtb: 6.5.0 (97a52f5)
O            0.00415517952402       -2.36436451401434       -1.50214926223793
S           -0.01651874917936       -1.63357397269986       -0.17957009788086
O           -0.05463628407407       -2.40350930478811        1.12018613361704
C            1.28748649609952       -0.38906610892370       -0.13793695927184
C            2.64056862913009       -0.59462466856654       -0.11693977958055
C            3.50063355888182        0.50118173718938       -0.07815504272709
N            4.92380042281430        0.30963776380113       -0.06741345544467
C            5.66271634348770       -0.46538512214245       -0.98511573829640
C            5.25182255222742       -1.21116690876869       -2.08916134034802
C            6.20154570485831       -1.86257758209632       -2.83683560891008
C            7.55728014724354       -1.78325438834279       -2.50647622244957
C            7.98019692470525       -1.04805417330566       -1.42570988307692
C            7.02625694630144       -0.37962195397172       -0.65694459692917
C            7.13498447285533        0.46944008117995        0.50532307913747
C            8.22877102034733        0.89046647125148        1.26305469628975
C            8.00489845486387        1.70623768720315        2.34556544298366
C            6.71097430220777        2.10833455696148        2.68832131635014
C            5.62570232456510        1.70386355747101        1.95078295166031
C            5.83504306164044        0.88091001671658        0.84490891909999
C            2.96048150386749        1.78750899695699       -0.05985569632322
C            1.59951102303512        1.98775531249126       -0.08619823364902
C            0.74449417117926        0.88726485159264       -0.12757558221884
C           -0.72122984848860        0.90398181370147       -0.15901516570068
C           -1.55156099593668        2.02389241605417       -0.16766330776992
C           -2.91670320014017        1.85470982120950       -0.19560582952245
C           -3.48551443595333        0.58072430054872       -0.21145383625410
N           -4.91266439728808        0.42164878894148       -0.22272411124805
C           -5.66728616844794       -0.36402857450170        0.67307180107445
C           -5.27171089066337       -1.15254628125911        1.75277405051082
C           -6.23492631629504       -1.80315300204915        2.48374633518113
C           -7.58924069713458       -1.68107349341825        2.16067361238659
C           -7.99712851033959       -0.90348834258800        1.10408823798451
C           -7.02933309506377       -0.23531961589778        0.35266847124378
C           -7.12108106237903        0.65257413701248       -0.78161489057414
C           -8.20691638588469        1.12484439160483       -1.52031473365839
C           -7.96704996421817        1.97049853781626       -2.57611320789433
C           -6.66494527378468        2.35257654380031       -2.91063393703590
C           -5.58731697174687        1.89765299635558       -2.19151292420106
C           -5.81270485633945        1.04343064620487       -1.11281595559402
C           -2.64995053444728       -0.53451908214021       -0.20590340789280
C           -1.29254958176571       -0.35974353959084       -0.18313519765162
H            3.03877939779209       -1.59285751767302       -0.11895127881856
H            4.20815233004646       -1.26009984286460       -2.34267148646076
H            5.89850196784898       -2.44198930720391       -3.69310178090125
H            8.28119106581542       -2.30401960420927       -3.11139581745042
H            9.02205730358198       -0.97799774002079       -1.16854310565250
H            9.22110687859564        0.57378724493265        0.99556554808442
H            8.83839225108202        2.03922021902889        2.94186058024152
H            6.56385447328536        2.74405808896190        3.54563756304878
H            4.62667708570588        2.00114368195710        2.21444833301266
H            3.63170100900891        2.62791447146614       -0.04065553076253
H            1.19138512616044        2.98263881129037       -0.07594393420146
H           -1.12137388345080        3.00936107218308       -0.15133107942189
H           -3.56895240211742        2.71010016370997       -0.18853510857180
H           -4.22893193224916       -1.23417285357271        2.00141627552097
H           -5.94375221445134       -2.41509306600448        3.32128959698145
H           -8.32391268777097       -2.20216559286485        2.75218088182946
H           -9.03770349982004       -0.80001777197062        0.85302094433840
H           -9.20569442428161        0.82357876534990       -1.25911652886273
H           -8.79424560637613        2.34321081405790       -3.15748265228957
H           -6.50534521219786        3.01288321404515       -3.74686538168196
H           -4.58235710605742        2.17973796104657       -2.44914240128253
H           -3.07018494043213       -1.52336600862759       -0.23049467987419
