67
 energy: -14.797953159587 gnorm: 0.000764566149 xtb: 6.5.0 (97a52f5)
O            0.01918722093154       -2.34421783791330       -1.33135614728535
S           -0.00195597735318       -1.59529811966575       -0.01838512136764
O           -0.03378632976977       -2.32938048462305        1.30290299692953
C            1.29918493796642       -0.34562468019080        0.00152282146305
C            2.65858647291405       -0.54126813583620        0.02060574917222
C            3.49442550434601        0.55521041198467        0.01941174899969
C            2.97774356435934        1.85652839988516       -0.00738618223135
C            3.88394225914555        3.03171985733436       -0.04305264557279
C            4.73488375837165        3.24228520959061       -1.15545833302777
C            4.74011148551880        2.36699132773251       -2.27232193127311
C            5.56197675631640        2.58196636614598       -3.33252268002308
C            6.42958336657026        3.68668736505360       -3.35005694124578
C            6.45216669901249        4.55824987317156       -2.30978123997881
C            5.60566642557303        4.37107268844034       -1.18362246036129
C            5.60557673948476        5.26694581211132       -0.11807973878927
C            4.77201145597380        5.08517359879421        0.98208741718826
C            4.77186223627083        5.99913144077496        2.07029663393698
C            3.96386650887295        5.80362171078109        3.14319717243193
C            3.11259713358577        4.68733436330939        3.19747885531792
C            3.08246159820898        3.79209362826484        2.17594758277590
C            3.90124596061036        3.95679569244564        1.02888983035009
C            1.59285843914671        2.03005071812605       -0.01782285097286
C            0.75178531487404        0.92651825079480       -0.00932139257910
C           -0.71973331509554        0.93680861529819       -0.02972251354457
C           -1.54488268075000        2.05222672022310       -0.03345011507876
C           -2.93182245374613        1.89962472466241       -0.07250646166926
C           -3.82002895844901        3.08843288333493       -0.07406798080033
C           -4.74270669300983        3.29369016437580        0.98116938818495
C           -4.83895945416240        2.40129408869638        2.08045786465843
C           -5.73206492224850        2.61008618087111        3.08274858601058
C           -6.58464420882505        3.72616580786197        3.05771409939966
C           -6.52009381323144        4.61570930329420        2.03470972032909
C           -5.59723907547013        4.43534866200969        0.96908313971659
C           -5.50807127666855        5.35112085854508       -0.07537618627952
C           -4.60253686833500        5.17592070945472       -1.11792963361874
C           -4.51154595991261        6.11148916133184       -2.18377970915966
C           -3.63617107341836        5.92208373095277       -3.20350801696918
C           -2.80503460939662        4.78981520028504       -3.22446341388753
C           -2.86102646791358        3.87401230219564       -2.22248162011670
C           -3.75011760027052        4.03264221512580       -1.12774852561087
C           -3.46627097161717        0.60557289483869       -0.10766266731150
C           -2.64665521607908       -0.50302692687980       -0.09084329507232
C           -1.28503677938877       -0.32727918553643       -0.05011659076347
H            3.05423920658066       -1.54243039333993        0.03225517431445
H            4.56212764763431        0.42107346158474        0.03728246684960
H            4.07311576955531        1.52364715642769       -2.27438069859851
H            5.55043686808488        1.90261643894148       -4.16898543422672
H            7.07678598699879        3.84083722293463       -4.19770164262630
H            7.11369520924070        5.40705837429160       -2.32690042807903
H            6.26142702972233        6.11808455649348       -0.14639917357004
H            5.42627587912764        6.85274955283868        2.03164486528552
H            3.97416330930869        6.50483483708685        3.96131024921791
H            2.48069118902072        4.54325224817097        4.05842561283233
H            2.43346194616463        2.93663226230017        2.23230705009747
H            1.18207918895885        3.02207729188114       -0.04700364834417
H           -1.11949770519014        3.03795733002687       -0.00001386113534
H           -4.18376005673384        1.54970756174900        2.11760952934583
H           -5.78952756219900        1.91662112044257        3.90561324952009
H           -7.28979491525742        3.87486155897979        3.85882797825148
H           -7.16990706215538        5.47357223147996        2.01934012144931
H           -6.15137697417358        6.21225316298179       -0.07635318930156
H           -5.15164367235242        6.97666009800141       -2.17124684423630
H           -3.57731835959232        6.63998401209575       -4.00492103064412
H           -2.11961578606402        4.64969695796754       -4.04414030334753
H           -2.22796213808275        3.00568977370037       -2.25662489828448
H           -4.53498967719919        0.48620371617839       -0.15160438470928
H           -3.05657445433664       -1.49827610066196       -0.11151997233102
