104
 energy: -23.137213584137 gnorm: 0.000274733679 xtb: 6.5.0 (97a52f5)
O            6.53910221057607       -0.61351187120318       -2.69833195768975
S            6.57530405547488        0.46988845357381       -3.75485715776876
O            7.92374089237275        0.79805172937182       -4.37366123495035
C            5.85336637562835        2.00031145317097       -3.16157168679407
C            6.71341530801987        2.96269277528177       -2.68179264046821
C            6.24007130706971        4.19552947777016       -2.28470599780222
C            4.87639419999832        4.47421744072079       -2.34116874451478
C            4.34301483749094        5.83593716719687       -2.12244869012874
C            3.24414131581132        6.27617914764656       -2.86334535376417
C            2.77917072440120        7.56202962548983       -2.74712114792976
C            3.39916044441053        8.46350415252726       -1.89030320350997
N            2.95231987681361        9.82834106169681       -1.84019217685350
C            3.74864991758582       10.96612421452592       -2.09339625134382
C            5.11704309766838       11.08756532305554       -2.33288187323623
C            5.63392804217858       12.33159520455683       -2.59897244794335
C            4.81118875996359       13.46073895702525       -2.63609885170749
C            3.45944645809106       13.35811792586839       -2.41180454203227
C            2.91974224937007       12.10015365527471       -2.13963502522896
C            1.56636352648326       11.65209983219741       -1.91100826580230
C            0.34657120052927       12.32886719168742       -1.86770706306699
C           -0.80054407641233       11.60596911420251       -1.64493100321115
C           -0.75394861127087       10.22090960994495       -1.46414318981838
C            0.43840624187934        9.54114555024932       -1.50706616953837
C            1.61205572281525       10.25847673319204       -1.73676195336687
C            4.48512903830211        8.02986244649234       -1.13583204735712
C            4.94805920512163        6.73921994126788       -1.24775052211330
C            4.02267390374117        3.45592241721426       -2.75740342130889
C            4.48826609240929        2.23157291315822       -3.20701610260062
C            3.49393811267858        1.22868920772944       -3.80017611773472
C            2.21256278719153        1.96874117483308       -4.22928030151195
C            2.04356954350485        2.97273335947855       -5.16162547638516
C            0.77755114355334        3.48493573528529       -5.37356356954431
C           -0.30834065155585        3.00038116116397       -4.66259358191784
C           -0.14744673685700        1.99695890038501       -3.72866569024835
C            1.12163003558821        1.48016972472953       -3.51279169531828
C            1.57992704614292        0.42939426967113       -2.59753653522572
C            0.86175883592480       -0.33784515471925       -1.69143504978485
C            1.53156801030270       -1.27515477524178       -0.93231295683659
C            2.89836416262541       -1.44673687439884       -1.07281149819168
C            3.61484723293853       -0.68328283662548       -1.97423544291962
C            2.95867069043552        0.25693999906354       -2.73968729723073
C            4.08648658097133        0.49216844152494       -5.00571040976005
C            3.27797424621644        0.22987668537932       -6.09918445714174
C            3.77491158397074       -0.30048693994711       -7.28717261616334
C            2.93079490619864       -0.29714732817350       -8.50165011130397
C            1.98442069653151        0.71378974980608       -8.68073436324125
C            1.25481693397256        0.80535810236855       -9.83911482997643
C            1.44656180051890       -0.10562035426814      -10.87100956498412
N            0.73792662577166        0.05515057875888      -12.11003270299440
C            0.02683181896750       -0.93880270000273      -12.81541917213399
C           -0.17150640265037       -2.29146982214827      -12.54104201180315
C           -0.93988294280748       -3.03503097629065      -13.40282230858712
C           -1.52030694766899       -2.45555132684257      -14.53446963463541
C           -1.34250687912340       -1.12259612659084      -14.81576047100034
C           -0.56454291128231       -0.35422912908326      -13.94886366618322
C           -0.20668460819878        1.04430780608627      -13.94893601958308
C           -0.50634636637395        2.09200348428832      -14.82117234688019
C            0.00072541178023        3.34029135108496      -14.55147807915422
C            0.80509963749648        3.56215912831700      -13.43062441092305
C            1.10687588099590        2.54137813167449      -12.56333838815280
C            0.59174452149984        1.26962546903606      -12.81524358889595
C            2.36981477636166       -1.13170355894796      -10.69182440566703
C            3.09938358429832       -1.22627184172505       -9.52900091619578
C            5.11639121890572       -0.67461909888276       -7.32034285357738
C            5.92230416718592       -0.46493479242901       -6.22115457638156
C            5.42280392261194        0.13605477468173       -5.08732066699133
H            7.77072736401488        2.75455828104396       -2.66570716618863
H            6.92749852218228        4.96441658691770       -1.97846771896978
H            2.77878791074335        5.60587508490586       -3.56495195966603
H            1.95000204543073        7.89869644132638       -3.34420446800588
H            5.74209885379180       10.21309375845658       -2.31723088084924
H            6.68954451337240       12.43938719689604       -2.78668178529739
H            5.24318082915940       14.42421466354802       -2.85085869334113
H            2.81763117404244       14.22033119840408       -2.45139181582233
H            0.31860034207795       13.39446678622985       -2.01120296035336
H           -1.75058855785407       12.11313050954742       -1.60988226476874
H           -1.66867576239717        9.67884747248726       -1.28918704711269
H            0.48219047595390        8.47648142900359       -1.36343685286212
H            4.95785108823646        8.72281784889028       -0.46233659046119
H            5.78845848771854        6.41723483932029       -0.65783658214792
H            2.96528907036837        3.64418121865986       -2.77195781563373
H            2.89370693506108        3.34219501804881       -5.70821666741867
H            0.63464880139484        4.26883428495471       -6.09924930033832
H           -1.28869503835072        3.41069957129714       -4.84006954520274
H           -0.98472427001267        1.61467662502711       -3.17170702662475
H           -0.19977108589157       -0.19542901264355       -1.59021033245733
H            0.98671621879424       -1.87804632754998       -0.22466851315733
H            3.40937586350657       -2.18257770163840       -0.47354019905372
H            4.67484178090683       -0.81096980870485       -2.08773804282012
H            2.23697335471903        0.48961848488957       -6.04747148098066
H            1.85168477881869        1.45382224017108       -7.91073318427495
H            0.52868168731984        1.58911124749609       -9.96500807772952
H            0.26699048726055       -2.72904261925353      -11.66246846375845
H           -1.10053213323868       -4.08166270154234      -13.20322216656142
H           -2.11873656302480       -3.06285171792276      -15.19328759200448
H           -1.79048547310567       -0.66719100908163      -15.68113744129400
H           -1.12266885150358        1.91241326654376      -15.68413536431672
H           -0.22171163935725        4.16007580261241      -15.21445307512681
H            1.19514103648348        4.54954529650471      -13.24564068262280
H            1.73683851564985        2.70422493982490      -11.70759331030304
H            2.52797950118186       -1.83262867075187      -11.49222388562014
H            3.81683703494170       -2.01910337473847       -9.40771793161874
H            5.53335832477581       -1.07785975002973       -8.22648171076519
H            6.96764059182632       -0.72503264291120       -6.25500489751421
