63
 energy: -14.125887836015 gnorm: 0.000769190708 xtb: 6.5.0 (97a52f5)
O           -0.07855715660780       -2.38453209087984       -1.36003726642156
S           -0.00910417513769       -1.63731584561147       -0.04782386218230
O            0.04634964674234       -2.39138825759602        1.26070802736800
C            1.29496348794364       -0.39156267365364       -0.11120913407232
C            2.65355027479925       -0.58461816558355       -0.18115063285549
C            3.48684914123744        0.51483186781411       -0.21794718371953
C            2.96416185937316        1.80701048068650       -0.18377946060581
N            3.83457001493240        2.95051183850300       -0.20630122044154
C            4.84949536173546        3.20935517388651       -1.14952141819159
C            5.26831392453212        2.48284769714552       -2.26356537199244
C            6.28806616002320        2.98509307329308       -3.03358333464092
C            6.89905991299204        4.20155132382022       -2.71686320541370
C            6.49429466287017        4.93307418245755       -1.62698428699509
C            5.45794995183467        4.43642678464817       -0.83472270896984
C            4.79982588967096        4.95237389866244        0.34186119578025
C            4.98783410656773        6.11372687690349        1.09314335759164
C            4.19099389902074        6.32414881736480        2.19216576794376
C            3.21083985529314        5.39731353151396        2.55764745090612
C            3.01257683165612        4.25154117852964        1.82779224154764
C            3.80857688361117        4.02526460215986        0.70533687327693
C            1.58836951665803        1.98485465429465       -0.11626559237477
C            0.74826444358370        0.88080343829214       -0.07960924887999
C           -0.71920748458178        0.89453847958818       -0.01028169497127
C           -1.53871491664818        2.01408823800739        0.02346614603066
C           -2.91816169935523        1.86215403471317        0.07954698348030
N           -3.76777020255623        3.02123346239624        0.09016546243124
C           -4.80634489775988        3.29020836745246        1.00454437133175
C           -5.26760920420569        2.56548110020978        2.10296288942482
C           -6.30521923480765        3.07693493003285        2.84250251937988
C           -6.89288663171380        4.30084163639054        2.51078507539575
C           -6.44626623530158        5.03093002515046        1.43642765117057
C           -5.39123150660295        4.52496119359857        0.67535590208844
C           -4.69341125320213        5.03586594218008       -0.48017648530158
C           -4.84615737922718        6.20145021198045       -1.23291914905287
C           -4.01673777337914        6.40459693644927       -2.30892088916836
C           -3.03910718950387        5.46602571832039       -2.65022438658476
C           -2.87544072058083        4.31595547234946       -1.91855893693215
C           -3.70384184458890        4.09740650376458       -0.81814391107393
C           -3.46491702326125        0.57977845191218        0.10740943317428
C           -2.65214470073314       -0.53506816628286        0.07512492719793
C           -1.28977385878905       -0.36742887837082        0.01440325734881
H            3.05110013607161       -1.58482014376717       -0.20395259896974
H            4.55421102339042        0.38764809603782       -0.25858123492844
H            4.78730855943877        1.55295485520807       -2.50731954146296
H            6.62220222079504        2.43430524084555       -3.89737956703637
H            7.69702331733834        4.57161045109277       -3.33911340654672
H            6.95627734339115        5.87234088583274       -1.37957486274734
H            5.74674014090472        6.82050850258839        0.80792971532042
H            4.32444466844062        7.21498038982964        2.78335655227267
H            2.60268695770561        5.58541236210637        3.42713261231615
H            2.26591033854631        3.53086554668627        2.10815322482117
H            1.18161902503847        2.97817947532271       -0.10196794001389
H           -1.11301001614779        2.99949229830611        0.01372162610906
H           -4.80461615846285        1.62983844856060        2.35919460706312
H           -6.67196904714552        2.52754916405633        3.69386906402030
H           -7.70596397177879        4.67782185951073        3.10884899288808
H           -6.89041501758844        5.97563915635482        1.17732529188917
H           -5.60380693827436        6.91696524676069       -0.96679627596761
H           -4.12256221661639        7.29860975425741       -2.90089821207944
H           -2.40524001939512        5.64826236349042       -3.50240774298951
H           -2.13126166624737        3.58621549985567       -2.18143239071464
H           -4.53476762231706        0.47231876146423        0.13755908780862
H           -3.06846179362850       -1.52772426090549        0.09168284692509
