37
 energy: -7.857864140250 gnorm: 0.000622509216 xtb: 6.5.0 (97a52f5)
O            1.06972126423339        0.11013341168912        0.58959023574256
S            2.57221402663513        0.04389373168987        0.45600801704820
O            3.46539255700107       -0.01743801388210        1.67239971939412
C            3.16203052670146        1.30407670320398       -0.70064464781089
C            3.17143773386531        2.66878930342609       -0.55473146121578
C            3.68230028562596        3.44888665351134       -1.57609826062490
C            4.17852983163711        2.86056414350020       -2.72738578013154
C            4.16837354212213        1.48929851869623       -2.87436116647095
C            3.65140974157597        0.70065029839836       -1.85019730179154
C            3.56545813663398       -0.74790689077253       -1.81956485046118
C            3.04674664295375       -1.27213103674930       -0.70297793038555
C            2.99349561885668       -2.74065937431523       -0.65003353048355
C            2.52308563305972       -3.52568087444780        0.40400406946142
C            2.57827383727202       -4.89937780166865        0.29847361694237
C            3.09727754134256       -5.49907562467914       -0.83689068324999
C            3.56667751435272       -4.72760021197328       -1.88562293926803
C            3.50904709167516       -3.36062891141415       -1.78415403263870
P            4.04180319834849       -2.08515997149006       -2.94373325229147
C            5.80177998475791       -2.10882529843936       -2.55771325936434
C            6.26839494715037       -2.03745923885538       -1.26533858514645
C            7.62843937451044       -2.05845252114678       -1.02156157755530
C            8.51471571889535       -2.15049107865028       -2.07586167483098
C            8.04354234097889       -2.22089782240244       -3.37153408913275
C            6.68120887876156       -2.20033469914849       -3.61197527151456
H            2.78545472329506        3.11367970378492        0.34643666718037
H            3.69583786260634        4.52146785105133       -1.47395632939684
H            4.57712121473267        3.47874622025170       -3.51475197054205
H            4.55510124876054        1.02074503353676       -3.76199398652248
H            2.13031749065502       -3.04951428462869        1.28493558097754
H            2.21670561259019       -5.51168513588232        1.10806445582795
H            3.13709502339867       -6.57363512428022       -0.90479772500755
H            3.97634424043822       -5.18124885685242       -2.77205087840146
H            5.56913034363060       -1.96093989175437       -0.44990179852066
H            7.99555949848710       -2.00186638418137       -0.01004009046075
H            9.57549005891700       -2.16628442512327       -1.88747974082803
H            8.73488492599885       -2.29218657933293       -4.19498412297131
H            6.29820178754347       -2.25486152066774       -4.61922542555430
