45
 energy: -9.849169880650 gnorm: 0.000816214430 xtb: 6.5.0 (97a52f5)
O            0.06604579229442       -2.23965021163905       -1.43785361252892
S            0.01793905202772       -1.54546586484653       -0.09641637320089
O           -0.01852422734430       -2.34673217889802        1.18431513994430
C            1.29897530338171       -0.27903903839829       -0.00286852147329
C            2.66009158454998       -0.45702025477143        0.01875311115832
C            3.48022484741506        0.65334592546971        0.08748933303158
C            2.93202498194819        1.92323201826678        0.13369957726137
C            1.56337456220861        2.09815643168241        0.11287228223242
C            0.73286050354207        0.98353427505553        0.04456011440873
C           -0.73867537669262        0.97289633251400       -0.00053009577726
C           -1.58236817422287        2.07424438448796        0.02499150604748
C           -2.96555087960444        1.90222039564315       -0.05120890732213
C           -3.87044229393286        3.07857449653863       -0.04645306503669
C           -4.81545013752661        3.25398296655726        0.99380915270609
C           -4.92575573140614        2.33868761782569        2.07232934238297
C           -5.83811735011052        2.52143513490281        3.06214151540760
C           -6.69776313207278        3.63208093227301        3.04399968416485
C           -6.62253224616449        4.54130510846381        2.03942921624087
C           -5.68026686595293        4.38791172907258        0.98699166244130
C           -5.58188805043537        5.32320035697537       -0.03898485703356
C           -4.65675064738282        5.17545830818153       -1.06816312500145
C           -4.55582817506493        6.13063863076674       -2.11535536981143
C           -3.66148384919786        5.96690011973500       -3.12280390204129
C           -2.81993223275716        4.84265857119325       -3.14932381264763
C           -2.88436358299730        3.90934139379320       -2.16443744636128
C           -3.79301314041573        4.04107349847638       -1.08259583963673
C           -3.47880748676725        0.60292010712763       -0.14651711101164
C           -2.64145756009168       -0.49224065517617       -0.16061235471484
C           -1.28377955448652       -0.29718571532439       -0.08879847847698
H            3.07060056088470       -1.45155978147629       -0.02057733025775
H            4.55052335155943        0.52940784221879        0.10309517002441
H            3.57923396189277        2.78324684165639        0.18510555351530
H            1.13560384132145        3.08436403068427        0.14608373402720
H           -1.17428769077878        3.06470608336160        0.10292772458344
H           -4.26684210443463        1.48973145287683        2.10336540213527
H           -5.90588273612187        1.81105341823989        3.86960939706973
H           -7.41716493155608        3.76093292900673        3.83578179494252
H           -7.27863108183549        5.39442366901798        2.02934935595185
H           -6.23345667432607        6.17806027906729       -0.03604391020950
H           -5.20328067418716        6.99019835830739       -2.09889086078618
H           -3.59533942684578        6.69936033034773       -3.91032112847086
H           -2.12005448622033        4.72221640307740       -3.95977370806416
H           -2.24273174500717        3.04749988010179       -2.20302418128069
H           -4.54425518851170        0.46924361281903       -0.21899220747065
H           -3.03455090857216       -1.49190016525676       -0.23216357105723
