73
 energy: -16.306409678842 gnorm: 0.000508929322 xtb: 6.5.0 (97a52f5)
O           -0.19693518796975       -2.59479780880919       -0.91450480068340
S           -0.09622677198942       -1.70096689480115        0.30051627997878
O           -0.03887615925418       -2.28730669604756        1.69257881702888
C            1.23107624130781       -0.49977366164487        0.07625671178306
C            2.58303023137832       -0.73435682592235        0.02918139855581
C            3.44348194407677        0.33284984642501       -0.15025698431175
C            2.94396158641642        1.61736395889322       -0.28049697868085
C            1.58450295702131        1.84975649356090       -0.23279222796148
C            0.71379484466620        0.77872678195764       -0.05133097248260
C           -0.75390563283038        0.83246556504567        0.03108952130835
C           -1.55365059339349        1.96438089720542       -0.05380531848765
C           -2.93394138194176        1.84951170653887        0.05553123116793
N           -3.75971496351061        3.02455217532269       -0.00985379015143
C           -4.71291630259788        3.42270794441488        0.95100523485648
C           -5.12458719605910        2.81621101050436        2.13700525712956
C           -6.07877783796654        3.44116974785893        2.90162717090363
C           -6.62996774297476        4.66399238488357        2.50926108191256
C           -6.22971946950078        5.27941640902392        1.34797238578863
C           -5.26070122071490        4.65628187509293        0.56069517132762
C           -4.62678921461489        5.03255164134933       -0.68083913400764
C           -4.77765271287689        6.14128722866319       -1.50847721376738
C           -4.03014860668480        6.22883987242140       -2.67462268375431
C           -4.17297350440916        7.40224021827200       -3.56446048772949
C           -4.33792880940805        7.23081637731425       -4.95652858459248
C           -4.48534742527801        8.29826582909830       -5.80313563716790
C           -4.46755010253746        9.58774905519105       -5.27061201287201
C           -4.29044163772243        9.77773216222841       -3.88930333343565
C           -4.15089630110071        8.68609314539007       -3.03740954627599
C           -4.28805856432508       11.20123816027997       -3.64862399573464
C           -4.15023579793011       11.95689313385055       -2.48381935891507
C           -4.19702129166493       13.32676390775214       -2.57856165222252
C           -4.38223229832254       13.95621543317376       -3.81246374082803
C           -4.51882549094244       13.22530499129365       -4.96688874466011
C           -4.46631803315143       11.83406714406778       -4.89035053151029
N           -4.58166454632664       10.84653193761560       -5.89151597852481
C           -4.80234294760681       11.08396559470716       -7.29270967989213
C           -5.84771237222348       10.45459716712570       -7.95846797834269
C           -6.06452077329387       10.68678662326112       -9.29836596600150
C           -5.23998807963567       11.54955714169689       -9.99308755154240
C           -4.19706524544682       12.17970979431160       -9.34334277921920
C           -3.97915716694312       11.94976384757632       -8.00313502289901
C           -3.13037875817417        5.18899500227988       -2.99696699258471
C           -2.96586985644671        4.09811032696331       -2.18388205102539
C           -3.71460592239895        4.01504348767921       -1.00954851379339
C           -3.50343361453199        0.59117270077658        0.24553961347700
C           -2.71192132198801       -0.53598302103912        0.32809943890996
C           -1.34837139586293       -0.40471887920779        0.22190645329880
H            2.95577118324966       -1.73912962236104        0.13247320618768
H            4.50697721225672        0.16345501803219       -0.18808658246428
H            3.62225225172302        2.44302873938725       -0.41972691126944
H            1.19378935688594        2.84675828496859       -0.33303981670851
H           -1.11151287958806        2.93323869556931       -0.18842891606693
H           -4.69048883975089        1.87991600633943        2.43746002522551
H           -6.40773030654896        2.98308353185403        3.81984947008151
H           -7.37764027317194        5.13135821436005        3.12852920121638
H           -6.64560854283718        6.22264040098633        1.04091184023403
H           -5.47682274209739        6.91487331639905       -1.25073529344577
H           -4.36031649998803        6.22974785003714       -5.35068646622567
H           -4.60801641694743        8.16007330091985       -6.86220239886648
H           -4.01322048364093        8.83951826416191       -1.98330619876663
H           -4.01112209896738       11.46451094964398       -1.53777733857636
H           -4.09192227353293       13.92535882516344       -1.68882818884234
H           -4.41903733715724       15.03217980615550       -3.85730813361162
H           -4.66948570928575       13.70313246472432       -5.91801235646121
H           -6.49215542517840        9.79297322156659       -7.40661054226930
H           -6.87964316333717       10.19633686450905       -9.80465120824251
H           -5.41059998661974       11.73103271007054      -11.04153115134745
H           -3.55197346060087       12.85110843675666       -9.88589917737523
H           -3.16264489046324       12.42855253951246       -7.49170612867614
H           -2.55309740025712        5.27272387151448       -3.90132373186518
H           -2.27993079702609        3.30971813199576       -2.43598371295856
H           -4.57374322070572        0.51149499734589        0.31847773921246
H           -3.14525280873123       -1.51045975318919        0.47505724848334
