104
 energy: -23.138440494914 gnorm: 0.000749581493 xtb: 6.5.0 (97a52f5)
O            3.72286125912923        3.96128243385888        4.08334620661389
S            3.72109045977742        2.44609388810374        3.98256465717496
O            2.88961288803266        1.64444177736853        4.96503043974579
C            3.25655027346900        1.99492618515107        2.31537261247315
C            2.22513748983478        2.71279108439559        1.75597088670858
C            1.78265369180285        2.42326784191972        0.48193535450330
C            2.37651423509342        1.40045888987756       -0.22398585221985
C            3.41004159034559        0.68399686657993        0.34207223734751
C            3.88247551523387        0.97641954180861        1.61580059356689
C            5.00031806917838        0.11886293199131        2.21948505463848
C            5.85402929215731       -0.49639358045639        1.09977391673499
C            6.64724385353073        0.12154089813798        0.16114391172718
C            7.34046303496883       -0.64767831969484       -0.77750261663260
C            8.20684961772984        0.00110708200133       -1.78316586305569
C            8.27721975286347       -0.48122731903196       -3.09143455054304
C            9.09287842342501        0.11687169686158       -4.02109626640447
C            9.87249281748715        1.21704872509891       -3.67849716704180
N           10.74614481009780        1.82427993433653       -4.64339239433259
C           12.11732001798400        2.10420534467466       -4.45946246889574
C           12.95700369657274        1.88212864050163       -3.36845911619781
C           14.28086994699036        2.23248828736593       -3.47043295619019
C           14.78779219923066        2.79859575226930       -4.64320596118230
C           13.97665621768846        3.01645883019057       -5.73084731272789
C           12.62934165237294        2.66392164111145       -5.64233039790342
C           11.54172674618784        2.73428646699481       -6.58971782538812
C           11.46904570610047        3.19720328474226       -7.90411091730564
C           10.26205929395783        3.13720243968124       -8.55820793040475
C            9.12604004093217        2.62589839487692       -7.92498709355149
C            9.18296610517888        2.16472815419370       -6.63269520888609
C           10.40145367128332        2.21146915902214       -5.95617764016351
C            9.80285903245371        1.70601000119569       -2.37791640114832
C            8.98462273536452        1.11129067910697       -1.44844902015158
C            7.20677624218873       -2.04232256718692       -0.73934583551646
C            6.41597746813452       -2.66520992851167        0.19992446469451
C            5.73493689002155       -1.88805191754662        1.12763497054775
C            4.85027021520193       -2.27436885011042        2.22703275150312
C            4.44515893428589       -3.52923996490895        2.66406638196321
C            3.60652375449504       -3.61925209329598        3.75291082421785
C            3.15547327698283       -2.47624665532576        4.42697261705882
C            2.26599788572235       -2.58143377579947        5.60117225638960
C            1.29094743386344       -1.61280448349974        5.84861095672373
C            0.47406537127418       -1.69692682411417        6.94956461828849
C            0.60423675219641       -2.74833476540884        7.85087720492792
N           -0.23485726250560       -2.82354483262237        9.01422234695621
C            0.20413625929544       -2.99285402126720       10.34483316381583
C            1.48868695262403       -3.10431547199173       10.87596664498968
C            1.63326630356230       -3.23419775647367       12.23538719026953
C            0.51967811970841       -3.25137596314958       13.07951544656380
C           -0.75271821810470       -3.13323405131933       12.57405616533548
C           -0.91499157857567       -2.99839067523577       11.19464318885003
C           -2.08477651141895       -2.82547219384318       10.36556262676015
C           -3.44622217715692       -2.75597142237416       10.66366585622008
C           -4.33905564177262       -2.58894657248406        9.63250079978754
C           -3.89935943344970       -2.49231425899557        8.30949557234695
C           -2.56257220535689       -2.55561733092711        8.00142782873630
C           -1.64201658133524       -2.71750283140885        9.03622966580802
C            1.57378583431474       -3.71680556818225        7.61145314196155
C            2.38749813259414       -3.63676717901733        6.50733667425712
C            3.56971041948960       -1.22294885765441        3.97152788366696
C            4.40668674934686       -1.12560165293038        2.88634699989509
C            5.89318461592666        0.87129195743145        3.21205381950078
C            7.21947322902907        0.48627127409848        3.36577181701011
C            8.04603440973809        1.10200793233394        4.28209785044856
C            7.55562946991570        2.11362408370959        5.07792789666173
C            6.23595396688761        2.49493892278965        4.95188920260761
C            5.41664635618933        1.87863143380424        4.03484951410518
H            1.76631954987159        3.50277236271080        2.32838051222865
H            0.97370295174332        2.98694367572823        0.04701019229102
H            2.03016857284372        1.15695621645207       -1.21502631129384
H            3.85912768335000       -0.12356296099533       -0.20896755565732
H            6.71798951402757        1.19344636069301        0.14625856911029
H            7.67296168328166       -1.32648821002254       -3.37157423069695
H            9.15268862569158       -0.26965098797447       -5.02335545233991
H           12.56394109877668        1.43457573021250       -2.47352540575208
H           14.94049892519847        2.06601880239424       -2.63475090841037
H           15.83094798419734        3.06335843821100       -4.69585564616990
H           14.36084741453708        3.44428979018673       -6.63980695297642
H           12.34734223100934        3.59197128856305       -8.38336765517858
H           10.18888453171684        3.49127651625596       -9.57325734044738
H            8.19083233806497        2.59523976287623       -8.45942575665223
H            8.31010642934659        1.78062710129106       -6.13629166469389
H           10.39488463891187        2.56470552827740       -2.11394709089471
H            8.95108396170969        1.49012614975689       -0.44170760228923
H            7.75366625513783       -2.63525901000691       -1.45134647616525
H            6.32355193493897       -3.73664019203771        0.22746123550941
H            4.78850816555025       -4.41080523787942        2.15194681669840
H            3.27547569877530       -4.58607591082050        4.08913292554027
H            1.18226828666074       -0.79004217832739        5.16364083837657
H           -0.26488792689507       -0.93841899242551        7.13966743610806
H            2.34182639922973       -3.07690027585193       10.22233072923876
H            2.62032327158267       -3.32023059228455       12.65904333381325
H            0.66244666769423       -3.35387874302633       14.14261547579365
H           -1.61435110500803       -3.13671918604132       13.21784929104134
H           -3.77658550471558       -2.83464469062028       11.68423679266853
H           -5.39390442889034       -2.53479684285710        9.84557880414005
H           -4.62144667163794       -2.36746745713717        7.51945072055598
H           -2.21865148504970       -2.49089685436091        6.98488917988162
H            1.67082504575385       -4.53531045110875        8.30294776471605
H            3.14469953853164       -4.38387830947827        6.34505357213890
H            3.25392694847670       -0.32877835477963        4.47427929004288
H            7.60449892749311       -0.31444292148957        2.75903014979284
H            9.07291408216263        0.78944082106883        4.37822878464353
H            8.19481608683687        2.59833715157572        5.79752238177503
H            5.83163210932978        3.27879189042377        5.57183783518390
