108
 energy: -23.471603731259 gnorm: 0.000792355819 xtb: 6.5.0 (97a52f5)
O            5.99746399413862       -2.10100405886012       -3.05050369276265
S            4.70349470287966       -2.08169455482822       -3.84246451026379
O            4.77121865879460       -1.86963715846234       -5.34442613585021
C            3.60935876752104       -0.85264938014550       -3.14219823857330
C            3.72840624509263        0.42326676893354       -3.64231669399007
C            2.94175222335817        1.44353125466306       -3.14902528717673
C            2.04013432300698        1.17563988388600       -2.14266104103341
C            1.92557501599038       -0.10555764593679       -1.64507248504137
C            2.69473218703882       -1.14919735259168       -2.14530778615239
C            2.56227338682760       -2.54586080062642       -1.52727631084020
C            1.16667846060795       -2.71529969948413       -0.90738192806713
C           -0.06569525249970       -2.73622337676066       -1.51668415637066
C           -1.22052768296735       -2.92672456104904       -0.75063282856367
C           -2.54613248701987       -2.97877870429271       -1.39702539727314
C           -3.69677527140680       -2.55370059323525       -0.72799203664509
C           -4.92883549023724       -2.61110352075768       -1.33144684407694
C           -5.06858281485092       -3.09302062228274       -2.63201838983239
N           -6.35285428488076       -3.15402730733208       -3.25961729580087
C           -7.36930846885995       -2.19555636499329       -2.92477693671331
C           -7.04852312261224       -0.85587193960003       -2.71946404464941
C           -8.02604413356961        0.05961237547465       -2.40086798136559
C           -9.34160044122489       -0.34442827326354       -2.28295536507994
C           -9.67641790825633       -1.66882713121880       -2.48676348142712
C           -8.70076142231649       -2.58623030730585       -2.80534191700749
C           -6.63977679175439       -4.17345112620247       -4.23021200284709
C           -6.16464152277520       -5.47236332465333       -4.06541867574947
C           -6.44440027817741       -6.44632694858841       -4.99728798775256
C           -7.20560052727043       -6.14312587321320       -6.10918353055301
C           -7.68751162252352       -4.86078626286270       -6.28529737595504
C           -7.40832513932834       -3.88498370790321       -5.35527181624100
C           -3.92270422177286       -3.51476850736422       -3.30414209566963
C           -2.69079718416715       -3.46077379559401       -2.70074208106627
C           -1.08674902062879       -3.08327080617000        0.63718113685556
C            0.14446559764141       -3.05669208962011        1.25274421298402
C            1.28173230819737       -2.87264666467971        0.47639737732465
C            2.69520118385937       -2.83782159624520        0.84899728071543
C            3.31192697924061       -2.96805916557812        2.08714417994832
C            4.68722952545323       -2.94008147012791        2.15645438772775
C            5.48241757407971       -2.79534749383031        1.00884005700813
C            6.95586009856866       -2.80534952834350        1.08712258080151
C            7.73817412782836       -2.24680563786382        0.07115561658658
C            9.10917888071437       -2.26757436790362        0.13585164202710
C            9.76598267611784       -2.85559258360067        1.21477206366701
N           11.19595480922628       -2.90055217591110        1.26923878718798
C           11.97191684655365       -1.81772303259611        0.73297992967020
C           11.55408855789417       -0.49814480190328        0.88737706510228
C           12.29823449890029        0.53928037928952        0.37248845354692
C           13.47274881695412        0.27910360057188       -0.30623130333735
C           13.90082939429737       -1.02411715940756       -0.46765748660831
C           13.15878765181574       -2.06318298694810        0.04693914766127
C           11.85927961446335       -4.04291880808125        1.83262521544026
C           11.35120975686182       -5.32587026945525        1.64317597666695
C           11.98854754010893       -6.42105752390006        2.18106631384490
C           13.14548008210265       -6.25641410550560        2.91721580437996
C           13.66336688877678       -4.99095190621459        3.11267659772381
C           13.02766427444340       -3.89415145507343        2.57572008354244
C            8.99314593210778       -3.41767909362418        2.22879275010646
C            7.62180716976938       -3.39371176049542        2.16639350401662
C            4.84113264570132       -2.65253248248424       -0.22485525613097
C            3.47013837518615       -2.66773434493217       -0.30059781273562
C            2.85096955603778       -3.68791938536822       -2.50698683333622
C            2.22462513273405       -4.91535932783478       -2.32833935484612
C            2.49038168244706       -5.98584377827535       -3.15619114270705
C            3.40430782090716       -5.85312986004003       -4.17820470344686
C            4.05105684711817       -4.64753226453441       -4.35599580608736
C            3.78157544695777       -3.58275749528540       -3.52786219563976
H            4.44591902991686        0.61482821605388       -4.42379855735649
H            3.03773669034635        2.44232928956343       -3.54213230264432
H            1.42873589728692        1.96683496768590       -1.74059786014220
H            1.23108308002465       -0.30469905939278       -0.84790112473025
H           -0.13122777841271       -2.59355200802924       -2.57927970466292
H           -3.60996999549948       -2.16032544590175        0.26963090554320
H           -5.80780767884863       -2.29170426855851       -0.79974650676760
H           -6.02378653430313       -0.54489458868095       -2.82376944217665
H           -7.76462361917949        1.09335900527000       -2.24452689492699
H          -10.10597948605859        0.37295072545439       -2.03304088218574
H          -10.70268168895091       -1.98476936795164       -2.39528076639691
H           -8.95391410716850       -3.62061524712790       -2.95881424792050
H           -5.58218644346820       -5.70624974694414       -3.19154473433641
H           -6.06983274381774       -7.44721479028789       -4.85822575702653
H           -7.42418738532443       -6.90635746925440       -6.83793204579440
H           -8.28213042135531       -4.62349093037946       -7.15221829478378
H           -7.77527025548433       -2.88265384946374       -5.49025178696446
H           -4.01634666602532       -3.87802480828274       -4.31240799923131
H           -1.82286846932694       -3.81245076788958       -3.23052091681938
H           -1.96856403215688       -3.25236167130548        1.22953490195778
H            0.23796451604040       -3.18606742113276        2.31663833234111
H            2.71265866833973       -3.09088622217904        2.97215152611364
H            5.16269578397764       -3.01783592009922        3.11771115080601
H            7.25967787900461       -1.80532790330081       -0.78493714004746
H            9.69681411892564       -1.84613703614432       -0.66078375332397
H           10.64315568851027       -0.30117318863446        1.42497431250908
H           11.96458582899963        1.55597405825208        0.50056664606021
H           14.05447939927099        1.09171153353467       -0.70947826583611
H           14.81634652617575       -1.22791479930438       -0.99840557980668
H           13.48268486142929       -3.08082337070140       -0.08333884255954
H           10.45578460026759       -5.44931835526975        1.05961944239300
H           11.58470891672928       -7.40822473284410        2.02649511415455
H           13.64381200265280       -7.11428900301371        3.33803712204814
H           14.56592840470614       -4.86187522447464        3.68721672934183
H           13.42262982131365       -2.90541710334514        2.73044682335238
H            9.49101728545878       -3.86974855745845        3.06862891825757
H            7.05107030536389       -3.85872963432660        2.95032680850788
H            5.40607806173512       -2.54724823142124       -1.13018743699280
H            1.52298400467314       -5.03046175869957       -1.52081799738175
H            1.98643839524178       -6.92574351202989       -3.00086310358097
H            3.61828025835942       -6.68553564045965       -4.82831064998632
H            4.77674611139044       -4.52773210312853       -5.14415805827542
