111
 energy: -21.246674650474 gnorm: 0.000946852930 xtb: 6.5.0 (97a52f5)
C            1.52716413198013        0.17329151964041        0.14251923504531
C            3.00738729543523       -0.09916380787237       -0.18433585978415
C            3.89908942858162        0.46988799516925        0.93512837955468
C            3.21869058878554       -1.62483175387195       -0.24332311946955
C            3.36510846599561        0.57818192707999       -1.51684933596930
C            3.24522387517743        1.97572870367790       -1.62941882140615
C            3.53277602781532        2.64480104111776       -2.79315704149360
C            3.95881497745444        1.91386152708469       -3.89904397160142
C            4.08180723625736        0.51908005535788       -3.81022967963307
C            3.78675190030608       -0.14423789593307       -2.61842007651246
C            4.50536379299864        0.04388374465231       -5.10665692070495
C            4.79346938077960       -1.23312854785516       -5.58824844227340
C            5.19552119622947       -1.40095040136022       -6.89995605808077
C            5.51113075171982       -2.81583105012048       -7.41112295698659
C            6.63799834411924       -3.42745000021964       -6.55717876352926
C            4.24711434565145       -3.68877047672776       -7.30190450676346
C            5.97026096276566       -2.80689890975062       -8.88228483395543
C            5.30121146935005       -0.26502994359944       -7.72562860657893
C            5.01964026670775        0.99952957507883       -7.26902256210593
C            4.61519050526297        1.16268135179885       -5.94667666285231
N            4.28306659353155        2.31864275920661       -5.21044403424801
C            4.22744184931519        3.66644607256671       -5.70492279066342
C            3.51393761250027        3.97049835377937       -6.85672091491970
C            3.40586281924555        5.27615643035406       -7.30718932130517
C            2.62654179209643        5.57801003615614       -8.52838388844935
O            2.08715496332976        4.68199245355436       -9.15169399830301
C            2.50271165590877        6.98131590402950       -8.98748792777709
C            1.76485522186994        7.24675748108447      -10.13021664964192
C            1.65247143831040        8.54619322061473      -10.54511835133947
C            2.29721235033294        9.49398144950596       -9.77231769595057
N            2.96622747995641        9.10048446806367       -8.70566590361563
C            3.09949987882520        7.95018968119383       -8.28582271533319
C            4.02958556801019        6.28146954761758       -6.58750397865647
C            4.75723547906244        6.00655186058657       -5.44279289864789
N            5.38533847174823        7.06609918026433       -4.70769449272104
C            6.71988882853865        7.08526994319345       -4.25220885743656
C            7.76292792336850        6.17897496893623       -4.42466822752353
C            8.98904802905526        6.46587518802811       -3.87614858277734
C            9.22606454294353        7.64707502250560       -3.14692812071038
C           10.59956931678625        7.96976465329022       -2.53720421802631
C           11.11773862753523        9.29710568125654       -3.12239168407964
C           10.45988774115319        8.09743420875527       -1.00884919290608
C           11.63604445690680        6.87015348772710       -2.84023531192050
C            8.18732243548742        8.54339301873836       -2.97924710748741
C            6.93585630691420        8.26931285694603       -3.53104821734776
C            5.69306799665059        9.00470298318329       -3.53167377681577
C            5.32303577892127       10.22163262533013       -2.95907810032254
C            4.03054811829465       10.68863183250740       -3.10730933521711
C            3.63922691014926       12.02728590920006       -2.46156485332838
C            3.83252679878591       11.93099361801005       -0.93659275564323
C            4.53308244712279       13.14675619528007       -3.02735081441951
C            2.16860787575963       12.39289702441683       -2.74227005981992
C            3.11123835882536        9.91395019111209       -3.84066916826786
C            3.45838446612351        8.71377556257174       -4.41078437358921
C            4.76256035134671        8.24983925236896       -4.26155271271463
C            4.84997625987043        4.69286007362792       -5.01047733971460
H            1.23852397326985       -0.30963238055472        1.07562378872994
H            0.88196178600815       -0.20808282521122       -0.64833760212517
H            1.33407657114219        1.24004824639732        0.24628556665245
H            3.68092094702015       -0.01008555343334        1.88868721896463
H            3.74531152540918        1.54068977986642        1.05999206895019
H            4.95224987601019        0.30671747006355        0.70858907475834
H            2.96634887294981       -2.08691344571783        0.71075310404337
H            4.25765226978210       -1.86862717743832       -0.46296950181775
H            2.58685024226107       -2.07945460124002       -1.00567248630615
H            2.91140714424344        2.53802033958434       -0.77486380271169
H            3.42473768195300        3.71205693851095       -2.86719476327039
H            3.88610496490838       -1.21239930386854       -2.58235635221929
H            4.70017889213733       -2.07605322438704       -4.92916388081411
H            6.34275622170647       -3.51303010148987       -5.51245322532015
H            7.53398543908154       -2.80916418644913       -6.60254322431394
H            6.89797746428999       -4.42456458610626       -6.91132190332663
H            3.90996450756716       -3.76973679728817       -6.26947550718944
H            4.43609976287536       -4.69653096559191       -7.67059952309183
H            3.43326282306982       -3.26215308103784       -7.88737510321623
H            6.87252279978453       -2.20915863560001       -9.00786134143773
H            5.19421460058783       -2.40659383653953       -9.53383948296497
H            6.19527359197075       -3.81743218339818       -9.22238493488241
H            5.61285043066617       -0.38360964822182       -8.74785891173626
H            5.11117726655929        1.85943420506318       -7.90825797327046
H            3.01935452403992        3.18529212372824       -7.39767194252027
H            1.29832912739844        6.43978554367931      -10.66814674734587
H            1.09669464994528        8.81732465263778      -11.42804514996999
H            2.25070701812292       10.53924151307766      -10.03835509065319
H           -0.27182491481310        2.18379172237197       -5.08836324510532
H            3.94091283218309        7.29411805268708       -6.93812578349105
H            7.59835466260280        5.27771235545015       -4.98775573626509
H            9.78992820565163        5.76184841353670       -4.01421929285421
H           10.44867705608388       10.12313803867089       -2.88576947388056
H           11.20053861776356        9.23315204353770       -4.20690874266009
H           12.10146559056502        9.54158935642757       -2.72278994194473
H            9.77507379508536        8.90026313681128       -0.73946868322104
H           11.42267200314199        8.31185723079003       -0.54595103851309
H           10.07714411399972        7.17238245707549       -0.57885989641834
H           11.78161822979454        6.75324291238938       -3.91365581090244
H           11.32533322568210        5.91208685916106       -2.42485053152212
H           12.60238788156431        7.11980403565077       -2.40292526693383
H            8.33040197238232        9.45505599690848       -2.42966780205944
H            6.05014193694258       10.78204036144180       -2.40153443641304
H            4.87129842132715       11.72666963426683       -0.68105477112891
H            3.22187629303496       11.12990662467168       -0.52118615019830
H            3.54636775263186       12.86175869479301       -0.44768625404593
H            5.58367142892072       12.96615911964954       -2.80459102350904
H            4.26436530848833       14.11290581842831       -2.60124110797755
H            4.42692235588275       13.21388616989124       -4.10965088686190
H            1.49272757565864       11.64037988939157       -2.33729884594579
H            1.98476113311124       12.48604409675672       -3.81212569378067
H            1.91295967706853       13.34622780737049       -2.28045151681032
H            2.10271588966824       10.26646797914365       -3.96194619804035
H            2.74716910401701        8.13264386172340       -4.96970913960973
H            5.40290321136850        4.46769118939187       -4.11815612501107
