89
 energy: -19.593626981290 gnorm: 0.000772609956 xtb: 6.5.0 (97a52f5)
O            0.48165154329758        0.34800894425894       -0.01111726219761
S            1.95656642645703        0.27791862296575       -0.33798002884685
O            2.39492993821491        0.25618306657940       -1.78513049409166
C            2.78611957278713        1.62401334404503        0.48725121812117
C            2.41284946579112        2.89152113809399        0.11865091100198
C            3.00510531759212        3.99502302459809        0.70186618131470
C            3.97976755788170        3.81602900903989        1.66137898752058
C            4.35458797516265        2.54589018299719        2.03211594912131
C            3.76471657754810        1.41844010212666        1.45396756845949
O            4.21709237475061        0.17192902037993        1.90429422413698
C            3.64963546000684       -1.02656981289183        1.45219700877643
C            4.13099675717953       -2.19975053094932        2.02837761134866
C            3.63861474721270       -3.44613950641332        1.66968106335816
N            4.15315780878108       -4.64492459810307        2.28930130108061
C            5.05319773270821       -5.47454665381070        1.56466191082501
C            5.50426479408307       -5.08430484657655        0.30598480193484
C            6.37306419833514       -5.87005896466363       -0.41363443672772
C            6.81025678378225       -7.06688599926850        0.11136122019549
C            6.37496661196877       -7.46591279863217        1.35738206744001
C            5.50545209785104       -6.68497939953905        2.09864507649975
C            5.05269608845116       -7.18013069233915        3.47444424941318
C            4.19910543945495       -6.15472673004975        4.22243473374168
C            3.80111484121149       -6.43779789284093        5.51719064141153
C            2.99810566118624       -5.57002694923716        6.22567415380087
C            2.57344470687418       -4.39909792690519        5.63575195825337
C            2.95518098889281       -4.10359059408668        4.34814585033641
C            3.77367128963145       -4.96600697560514        3.62227026004369
C            6.30095986582408       -7.45638435937644        4.31600862957384
C            7.23363330064262       -6.44770571696158        4.48285451247368
C            8.37584293933182       -6.64575643750366        5.22970475534783
C            8.59792494150264       -7.86794974858474        5.82647156827677
C            7.67767916463879       -8.87867056450296        5.67862660876990
C            6.51643128256059       -8.69297596173967        4.93182451368602
N            5.57570959245537       -9.75218838461751        4.79781737817387
C            5.79550870767694      -10.98771132935971        5.51172506230082
C            5.60416647605318      -11.05575835561863        6.88878961291623
C            5.82981985461036      -12.23859080454186        7.55811424254161
C            6.23522539293815      -13.35988003899784        6.87743741691445
C            6.42284414805723      -13.33391186844681        5.49870400340549
C            6.20816893261306      -12.12754793739860        4.83690089464738
O            6.80671876117980      -14.43006331814953        4.71314882955990
C            6.74636176288583      -15.73683108262282        5.21671171417841
C            6.83023636928373      -16.77949224195411        4.29008956762851
C            6.76707660973862      -18.09383581302738        4.69020622757737
C            6.62211757449189      -18.40218248069081        6.02705223628017
C            6.54587014301763      -17.38352605437204        6.95716607721941
C            6.60856483641246      -16.07231450700296        6.55946934019343
S            6.51870667695578      -14.83384892066038        7.84045562347867
O            7.86944796564822      -14.72465097851667        8.51139761587261
O            5.29242343936582      -15.10073551694837        8.68409726112205
C            4.45146087501774       -9.62692948689300        3.93428104886634
C            3.58034831207361      -10.69865294268860        3.75050534819313
C            2.49019834220720      -10.59677057213994        2.91823837467198
C            2.24237384308408       -9.41492351450108        2.25438892936711
C            3.08766510590598       -8.34128113306833        2.43553139050074
C            4.19069832741748       -8.42648389435847        3.26685848128232
C            2.64151149876007       -3.52050789550033        0.70181209646809
C            2.16046294790626       -2.36825990988777        0.11963600938351
C            2.65406399857174       -1.14055703168505        0.48644872338898
H            1.65048249824465        3.01573435356229       -0.63382670281037
H            2.70767757888263        4.98819358944821        0.40836576683749
H            4.44717959682564        4.67147624689786        2.12071360750140
H            5.11302809921220        2.39468797117270        2.77982745617220
H            4.90389342495859       -2.13209415124871        2.77026550756950
H            5.16389851609659       -4.14993946875682       -0.10258450503940
H            6.71131917054015       -5.55106712816929       -1.38595982560782
H            7.49054952469671       -7.68742449785299       -0.44821080235847
H            6.71183389820825       -8.40026499641530        1.77202149246998
H            4.12399911061658       -7.36232074086225        5.96327871645140
H            2.69950651963121       -5.80935396996705        7.23294110457041
H            1.94167131300977       -3.71788761830829        6.18197362644765
H            2.61674672651104       -3.19387608982319        3.88632358697454
H            7.05399427020165       -5.49529166680182        4.01461083286587
H            9.09173530444989       -5.84883519317590        5.34506838422213
H            9.49045388721372       -8.03060855028662        6.40835491059569
H            7.85234008151976       -9.83296011330656        6.14200622539205
H            5.28162471860351      -10.17552277745247        7.41628888561750
H            5.69025596075473      -12.29590524085470        8.62563158753123
H            6.36263930981375      -12.08471807296723        3.77544600320615
H            6.93889183027858      -16.52756553195958        3.24999930468372
H            6.82889429019017      -18.88299375082115        3.95903395030090
H            6.57125814829238      -19.43052782806071        6.34472670063798
H            6.43683486964789      -17.60887488999178        8.00595398540775
H            3.76599476604402      -11.61769823250633        4.27590098257483
H            1.82925498491976      -11.43800519538097        2.78694203590020
H            1.38847765238779       -9.32736515517802        1.60307887586628
H            2.89201431536631       -7.40859917708260        1.93574753285744
H            2.25564811426292       -4.48465198419375        0.42127683785157
H            1.38842677268939       -2.41936692051078       -0.63138688521963
