66
 energy: -14.504336927397 gnorm: 0.000424695570 xtb: 6.5.0 (97a52f5)
O            0.81897711638236        0.41423548927363        1.26456893789468
S            1.14023914800778       -0.05572470556512       -0.14614749583608
C            2.41394617558901       -1.28294662316466        0.29786997177407
C            2.22866920119778       -2.58026944187628        0.74186715522120
C            3.32506264964430       -3.35676282281186        1.02704374356311
C            4.63264356063993       -2.85987632916560        0.86949201163077
C            5.81179508039736       -3.70741022916822        1.16904572598496
C            6.01724749225176       -4.92887947267079        0.47202188419003
C            5.13414333972385       -5.37152191785935       -0.54300127085493
C            5.34648134285046       -6.54206116210667       -1.20530701161576
C            6.45676964725958       -7.34143592801398       -0.89949131432157
C            7.34108498895270       -6.95102982511507        0.05674141927061
C            7.15665848459895       -5.73528116437909        0.76552802231008
C            8.07132619636093       -5.31330068660218        1.72844141785081
C            7.89768819463908       -4.11599127456400        2.42001858075232
C            8.83214338932235       -3.68845487922142        3.39894728759153
C            8.64512287394944       -2.52739848668086        4.08138436773851
C            7.51696489729499       -1.73362196305220        3.83153204980346
C            6.60041332532350       -2.10975478574801        2.89751444092832
C            6.75828629824319       -3.30188693477224        2.14882747798423
C            4.79875756126512       -1.54627560935499        0.42571792935179
C            3.69449894744340       -0.75376464017491        0.14531383292156
C            3.70760847549811        0.63863117754678       -0.30224938812977
C            4.82618721988099        1.43365996894117       -0.50915499087410
C            4.68500390058774        2.76013318790815       -0.92223420779370
C            5.87938691078504        3.61053782143606       -1.14310695716402
C            6.05915092995245        4.80812749003101       -0.39914117238527
C            5.13586643519568        5.22160224003238        0.59213959107868
C            5.32375962341281        6.36944556732606        1.30000334383308
C            6.44814013955847        7.17357153247897        1.06652709953111
C            7.37046916399893        6.81024391461177        0.13588410930905
C            7.21227989587712        5.61857865963697       -0.61868213507229
C            8.16537331285975        5.22352838802266       -1.55540998232881
C            8.01765202705945        4.04935540488915       -2.29127554541129
C            8.99079562487148        3.64957068704343       -3.24390201672312
C            8.82930678248656        2.51136759079231       -3.96999144881022
C            7.68999520706259        1.71419088400732       -3.79205051006301
C            6.73626868155983        2.06417129381156       -2.88551892848618
C            6.86557942276680        3.23181404041348       -2.09401263399376
C            3.38744533674316        3.26922526472783       -1.11864681775345
C            2.27672775617126        2.48939049654506       -0.90771739063200
C            2.43717656917313        1.17605310663065       -0.50303658184244
H            1.22987706747295       -2.96242496532339        0.86273144546282
H            3.19456366515809       -4.36271736290825        1.38678367239129
H            4.28686845508305       -4.76097348831353       -0.79834911348164
H            4.65914458257992       -6.85872526928230       -1.97258836440531
H            6.60981284201732       -8.26630074692897       -1.43103342365063
H            8.19778205708925       -7.56114606920913        0.28564604173830
H            8.93056725021814       -5.92328783687619        1.94059761691380
H            9.69518825156575       -4.30081627366462        3.59562071146069
H            9.36317779099430       -2.21466327111393        4.82161103624898
H            7.37697498609978       -0.82032608176815        4.38629198964821
H            5.73221240777493       -1.49889430394074        2.72697483161215
H            5.78974649543167       -1.15359565378828        0.29354541822438
H            5.80854909126752        1.03447287505760       -0.33795072498857
H            4.27719058457431        4.60647251501662        0.79257639351740
H            4.60591299258913        6.66423365033273        2.04781053436990
H            6.58141157326200        8.08039415440865        1.63331690917532
H            8.23771272833449        7.42376155804715       -0.03748820754982
H            9.03449532467787        5.83633202146583       -1.71187409930084
H            9.86256301849217        4.26479139122255       -3.38550523689790
H            9.57638355264932        2.21964032390954       -4.68978389216574
H            7.57111463364071        0.81914093541136       -4.38045270948955
H            5.86048495174948        1.45124302051927       -2.77029313919368
H            3.27639762562669        4.28807634630346       -1.44721473172256
H            1.28543474482028        2.88316720735553       -1.05105555839619
