44
 energy: -9.555339311020 gnorm: 0.000578316178 xtb: 6.5.0 (97a52f5)
O            1.39359503425016       -0.01146156099780        1.43335741407543
S            1.78511086323169       -0.40112768007110        0.01125319657421
C            3.24341411219243       -1.40820906087043        0.43989104203634
C            3.27033118818743       -2.73026695185893        0.84209847052513
C            4.48267818716588       -3.32277631121316        1.12003872506678
C            5.66216729173961       -2.59961129321972        0.99918480528386
C            5.63903686441936       -1.28010258749406        0.60342718218710
C            4.41809013514260       -0.66897598911296        0.31985465595355
C            4.20321039468398        0.71155880184585       -0.11051886947119
C            5.17527331168058        1.68169137113463       -0.31500604362266
C            4.82047307361451        2.96186591918828       -0.74790772677699
C            5.85927232214236        3.98702314672172       -1.00317536672420
C            5.81656697185069        5.24414548282235       -0.33727589224438
C            4.81989241008176        5.55524013037022        0.61765067061065
C            4.79063921397385        6.76556207479875        1.24399469070777
C            5.75931723009760        7.73606807732040        0.96092459214341
C            6.74931424825086        7.47616646652897        0.06426306478359
C            6.81593905478858        6.22698299968497       -0.60364095125424
C            7.84332901840578        5.94263692858864       -1.50197333369046
C            7.91521211980097        4.71555196785073       -2.15952210979648
C            8.96095456959596        4.43205022357126       -3.07443084106911
C            9.00808405963681        3.24257244479259       -3.73389738500197
C            8.01453943772735        2.27901477447278       -3.52350357524309
C            6.99697167791734        2.51456988672981       -2.64800349587533
C            6.91442041969173        3.72695024120304       -1.92259702044696
C            3.45629510317437        3.24744513668082       -0.95404210882589
C            2.48922915589279        2.29702894261667       -0.74060372144932
C            2.86262711061505        1.03009149199234       -0.32617191263979
H            2.34824467757548       -3.27763777425060        0.93390844239283
H            4.51613650827443       -4.35384444158518        1.43175619559816
H            6.60440602245722       -3.07512775332939        1.21670321015943
H            6.55222418241844       -0.71981236214169        0.50964296406934
H            6.20897202684007        1.45152481544256       -0.13587670332451
H            4.08031369319709        4.81349260076525        0.85957508815939
H            4.01894644706726        6.98015990326056        1.96487931023622
H            5.72083843072188        8.68964373993131        1.46147764773763
H            7.49891973300612        8.21923434618146       -0.14700803937193
H            8.59666787497688        6.68544205418675       -1.69151181438623
H            9.72008101488896        5.17618353001061       -3.24298026164607
H            9.80854192603195        3.04036636015281       -4.42638477504685
H            8.05710492303825        1.34579412768626       -4.06073520168996
H            6.23149328849209        1.77202114263227       -2.51176678069432
H            3.18024703192967        4.22805230038446       -1.30133722309930
H            1.44761763912712        2.51906233660096       -0.89551021491527
