12
 energy: -2.461759120736 gnorm: 0.000958654957 xtb: 6.5.0 (97a52f5)
O            1.17796200608910        0.28215367439131        0.46369313165379
N            2.29589072300356        0.07612809690118       -0.02440254035596
O            2.78459009528151       -1.05579142658209       -0.12679039346279
C            3.07065984360415        1.21694644053715       -0.49925083615275
C            2.76164303877279        2.56988537778998       -0.29268621116361
C            3.74235506350340        3.30744312599385       -0.89878285703751
N            4.64086773464249        2.44297850114188       -1.46942811462243
C            4.23619390525992        1.16280707707058       -1.22962019467053
H            1.90481657254616        2.94247433336732        0.24738516280216
H            3.81115147032702        4.38629075034013       -0.92782096047448
H            5.47518055448198        2.71738653710768       -1.99162051618322
H            4.73933899248793        0.26378751194104       -1.55594567033268
