25
 energy: -5.443436664119 gnorm: 0.000856149939 xtb: 6.5.0 (97a52f5)
O            1.68101143328610        0.86428250938143        0.41944270800201
N            2.40063022921482       -0.06075351358278        0.00398120521637
O            2.52408516130837       -1.13746109603703        0.61339154338940
C            3.12680464139722        0.12414777051174       -1.24484449280457
C            3.91612918069368       -0.89424192301012       -1.75018581758425
C            4.60167194496785       -0.71802996984617       -2.92743943896009
C            4.51779143180761        0.48132867089311       -3.63147560901858
C            5.26432024722417        0.63543811289727       -4.88419899428473
C            5.27651865223755        1.77816299716523       -5.68845518415176
N            6.09320183118642        1.51409298508207       -6.76139319805278
C            6.69582500277123        1.90343904561753       -7.94432807051065
C            7.46359881683395        0.85038141106873       -8.40648922769423
C            7.37263478856875       -0.21967868990752       -7.54321114138830
N            6.53234023357690        0.16629833248827       -6.50921135170681
N            6.03094404455640       -0.34034371091763       -5.38962753976101
C            3.71856657100575        1.50032439195805       -3.11211666574655
C            3.03360471981532        1.32065131831322       -1.93461623496927
H            3.98108598654481       -1.82068051895167       -1.20520670163039
H            5.21662171004084       -1.50729676611356       -3.32381259920703
H            4.76352752263945        2.70802356096916       -5.52464433570853
H            6.57873260666734        2.87176673487267       -8.39922720982037
H            8.05474196154688        0.86708603337949       -9.30775376573822
H            7.85400849069368       -1.17729724259708       -7.62739264760955
H            3.63816876892054        2.43429190759168       -3.63927611966010
H            2.41603402336691        2.10481764869735       -1.53024911009530
