111
 energy: -21.030884819932 gnorm: 0.000705287813 xtb: 6.5.0 (97a52f5)
C            0.32415290181353       -0.31391996061573        0.70134500737847
C            1.82151234007745       -0.30115730476414        0.34156455373743
C            1.98773186878829       -0.09937395371504       -1.17642771875633
C            2.48474096921989        0.88834577011552        1.06303674707213
C            2.45165303054854       -1.64257114347680        0.74880542826103
C            3.49465610142183       -1.72469510623728        1.69124720386112
C            4.05709601965958       -2.92335179013633        2.05651223492216
C            3.57921164464387       -4.09620062294267        1.47712077750469
C            2.54546184815421       -4.03469658018820        0.53066798810175
C            1.98343192191426       -2.80888538678116        0.17380636091858
C            2.28342998970645       -5.38525590403289        0.09299935509087
C            1.36733369625161       -5.91326025212997       -0.81664046488107
C            1.32640917438877       -7.27644747096902       -1.04091151574672
C            0.30809859023447       -7.84014199575439       -2.04468735142962
C           -1.11651830528647       -7.51054705048055       -1.56130216453110
C            0.54666560313871       -7.20234293327889       -3.42650766665274
C            0.43049791004098       -9.36956024933030       -2.19045570027805
C            2.21674364208212       -8.10546569693265       -0.33167616627275
C            3.12456828248155       -7.60242665544086        0.56793302755550
C            3.16825571758334       -6.22722022574289        0.78359223301876
N            3.96991361590450       -5.44215176126395        1.63860272006589
C            4.98383275198697       -5.92507312674140        2.53408461014089
C            5.94725351809492       -6.82461977091922        2.09743983804003
C            6.92460221045870       -7.30181893403576        2.95591420898310
C            7.93458297709236       -8.26385791585683        2.45701962882358
O            7.90040589675235       -8.64414222324893        1.30074171801599
C            8.98729098667073       -8.76463657891039        3.36918227006835
C            9.91649835521111       -9.67637478671210        2.90110366869893
C           10.88466943276309      -10.12339835184615        3.77432605595086
N           10.87729718844186       -9.65997258573076        5.01611928593253
C            9.97641036722653       -8.81029259125843        5.37655946386719
C            9.02014280109061       -8.32606281054098        4.62965469252194
C            6.92386126981387       -6.86150162975642        4.26983018138299
C            5.97666601038101       -5.96502292165132        4.73334429519963
N            6.00089356610023       -5.52572100989492        6.09817237268053
C            4.88850359917884       -5.42010901324699        6.95994630418902
C            3.54303586562500       -5.72828602400462        6.77200934875880
C            2.66520635629699       -5.53717175685720        7.81104495978336
C            3.08082307381331       -5.04264507380891        9.06220013860892
C            2.10128324162637       -4.84226542475483       10.22943521612070
C            2.51539031985472       -5.75329182321619       11.40000009958727
C            2.13818645727464       -3.36988124139994       10.68127839741933
C            0.65344956289516       -5.18950632535484        9.83121674100203
C            4.41779087833244       -4.74481995790184        9.24631879591540
C            5.32290606680525       -4.93290151943299        8.20185458046267
C            6.74850257929664       -4.72666851008415        8.10780269415326
C            7.68774296372615       -4.25515178703982        9.02500297212462
C            9.01541355790737       -4.14495574920146        8.65701995996822
C           10.03702258454887       -3.62906540117800        9.68300205077402
C            9.62078073216288       -2.22346223877512       10.15649668977228
C           10.07620791744321       -4.59022519198315       10.88570844273573
C           11.45527215473513       -3.53781569442505        9.08660592437375
C            9.38803063733196       -4.51800527440113        7.35152659050187
C            8.47660749734543       -4.98585363289881        6.43682764646926
C            7.14002343204558       -5.09842121880351        6.81289419290025
C            5.01022293323598       -5.50213898631802        3.85437321936342
H           -0.14828133579473        0.63205227237698        0.43831941099290
H            0.18692549706919       -0.47421905244144        1.77028661063479
H           -0.20305494321343       -1.10747331518619        0.17367934073944
H            1.56615492506858        0.85481590050453       -1.49110241036243
H            1.48616027202533       -0.88566298683609       -1.73866294994887
H            3.04155858736700       -0.11003295709283       -1.45287035419052
H            2.02747232089052        1.82884959534422        0.75685149901041
H            3.54687517258052        0.94731325482527        0.82744947160853
H            2.37202399680769        0.80497623088073        2.14347323137604
H            3.86965382652645       -0.82361571572130        2.14241888410122
H            4.86112597644643       -2.96919775209671        2.76898580239716
H            1.19045967792348       -2.78594617445455       -0.55027293278320
H            0.69844134699381       -5.24994945367166       -1.33263812836550
H           -1.27117590039370       -6.43486610581532       -1.48951575225190
H           -1.29821099866929       -7.94105024129252       -0.57700294469930
H           -1.86316290327689       -7.90954387153987       -2.24727222261259
H            0.41265571411839       -6.12210768000918       -3.39380069568069
H           -0.14847769658147       -7.60080975791522       -4.16488275363465
H            1.55953105119527       -7.40385854072022       -3.77378261581230
H            0.23887037773943       -9.87139799075380       -1.24255558637514
H            1.42322955939454       -9.65225242548568       -2.53936675795907
H           -0.29219774751188       -9.74711716326950       -2.91336847138513
H            2.18971038210137       -9.16819391777746       -0.49305052511736
H            3.79227053213472       -8.24882106006801        1.10877987239259
H            5.94295369310350       -7.15261212166362        1.07462419034819
H            9.87264528369657      -10.01731423535183        1.88135840461961
H           11.63036762642294      -10.83528249035719        3.45226595205527
H           17.05957529555983       -3.60052380614807        0.35232399127150
H            4.14766761272932       -3.73994017414618       -1.83267018045455
H            7.67134678007228       -7.23284094126549        4.94564978349568
H            3.21204539404019       -6.12082379442353        5.82734843152509
H            1.62877249502135       -5.77926699369907        7.65809129242086
H            3.51712060533942       -5.51277692410763       11.75340752846681
H            2.51071944626789       -6.79904157117250       11.09398854398263
H            1.83057886080881       -5.64398981975814       12.24034114499652
H            3.12854356440357       -3.08732247426161       11.03530342904351
H            1.43335774625818       -3.19387315519676       11.49330643296445
H            1.87522062182764       -2.70764668283819        9.85704988749385
H            0.56743176674877       -6.23429993516034        9.53433844048064
H            0.31300523017326       -4.56404706220925        9.00659966021997
H           -0.02594215139377       -5.02940103369871       10.66804409696458
H            4.77422772164831       -4.37415334269851       10.18926857222098
H            7.36569491011742       -3.98232352387462       10.01265033910057
H            8.64690001458030       -2.24060447164882       10.64356521357420
H            9.56185362399885       -1.53513014096681        9.31391322064155
H           10.34130938362566       -1.82330815641534       10.86925263097173
H            9.10529064216261       -4.65078085200958       11.37545070821916
H           10.80329820728483       -4.25858486005212       11.62638547774333
H           10.35300525199518       -5.59464814622563       10.56676224027409
H           11.47933793740710       -2.85983048014818        8.23399060534162
H           11.80919580662049       -4.51619993144714        8.76330081061051
H           12.16151059826881       -3.16154941457561        9.82629109757264
H           10.41833978142888       -4.43890188358121        7.05411654810352
H            8.77859946969708       -5.26967477973110        5.44494189373010
H            4.27045278326913       -4.80553453724186        4.20017844601708
