51
 energy: -10.673512988485 gnorm: 0.000537693547 xtb: 6.5.0 (97a52f5)
O            1.93135111201641        0.74502851934652        2.65117476391319
N            3.05569177916185        0.61111942304205        2.14077211780861
O            3.53825435085551       -0.49894317012255        1.86240490543341
C            3.84508502532421        1.81166790828677        1.85572614926870
C            5.06961791163816        1.70540797122494        1.22249300247532
C            5.81507723258149        2.82981953277928        0.95819615227988
C            5.35581842743976        4.09165529796730        1.33219771802791
C            6.15484121186217        5.29826949435915        1.01971829910015
N            6.61881392188903        5.38181484139057       -0.23362373476884
C            7.16348954295799        6.52884240047505       -0.61328946237833
C            7.22693399976696        7.66915860786458        0.19994830206357
C            6.91932754523989        7.52044953959041        1.55710862908622
C            6.39242878769547        6.30292022375759        1.98712950009388
C            6.11238536027638        6.11804193762047        3.43457526189613
C            6.11110878406910        4.86284285893899        4.04148449520484
C            5.84395934863969        4.71704996327801        5.38366506382616
C            5.59239842740944        5.82634372678675        6.16162356744083
C            5.63471587846924        7.08314718087041        5.59619399930986
C            5.90535788948767        7.24408669144170        4.24784661496972
C            6.08393043155476        8.61037772104379        3.65266162492375
C            7.20320367470171        8.57316652695303        2.59732718503757
C            7.68174097953755        8.94096592147914       -0.41512875883706
C            7.14524423437500       10.17932858224326       -0.06431096845444
C            7.59213388947896       11.33809287158942       -0.65934898281819
C            8.55750540491042       11.28321103596425       -1.64231673946870
C            9.04597217674077       10.06224645517487       -2.05840638705895
C            8.60362026855201        8.88866756359951       -1.47174846107690
C            8.98793603206890        7.54427835637346       -2.01974142878042
C            7.77781112550483        6.58831645086346       -1.98558336958940
C            4.10875722971563        4.18754744223840        1.95214481266224
C            3.36929235977697        3.05915898354808        2.21507982941257
H            5.42544371380895        0.72973341677351        0.93923870114525
H            6.76555619333961        2.74951042615688        0.46007872567467
H            6.32998896715306        3.99267928338281        3.44971779833663
H            5.83303546586950        3.73480470499070        5.82708585130393
H            5.38237725486084        5.71373851961502        7.21257627563076
H            5.47324368100320        7.95459913057410        6.20713720758536
H            5.14206134424776        8.92830956437279        3.19180828767338
H            6.30563609473920        9.34147623607523        4.43943739254669
H            8.15041986809038        8.31795315235267        3.08729690389664
H            7.37163151026821        9.55824372841000        2.15621504704623
H            6.32999617431246       10.22387551768834        0.63667307082054
H            7.17814881254357       12.28857187753087       -0.36472047197031
H            8.90594078405628       12.19064834854625       -2.10753802883749
H            9.76118762269700       10.01201230597035       -2.86133967021200
H            9.80852537939119        7.13377573154127       -1.42068442051912
H            9.37505652309705        7.65077458589243       -3.04017698297119
H            8.06670807460818        5.57664448987847       -2.29266109683730
H            7.01667244996623        6.91912769828608       -2.70028363039157
H            3.73387680252286        5.15894007112253        2.22446868839207
H            2.41281893971977        3.13006035086518        2.70373665068826
