48
 energy: -10.673235566553 gnorm: 0.000663645574 xtb: 6.5.0 (97a52f5)
O           -1.45699948419779       -3.87820517640889       -1.91378561542217
N           -0.29760349208248       -4.25455167696519       -2.15822362961581
O            0.07014654115890       -5.43285948581636       -2.01011652291075
C            0.67211854153193       -3.27202363901488       -2.63848370876669
C            1.97848641912728       -3.64927136826576       -2.89584166704933
C            2.89296223103794       -2.72531212584753       -3.34166944931254
C            2.51871369749157       -1.39944826641498       -3.53823116270760
N            3.47786199474504       -0.42682874238270       -3.97304925105477
C            3.31714145512639        0.54220718201035       -4.98570110006620
C            2.27066183091045        0.75969183070048       -5.88328921073015
C            2.38946183083164        1.76772215533592       -6.80694296829593
C            3.53624512245928        2.56841712252202       -6.86229271825621
C            4.57979229100434        2.36818905725620       -5.99490414973437
C            4.47387537819954        1.34734969872973       -5.04697047076301
C            5.36583027423880        0.86403369148993       -4.03470078218695
C            4.75946381840311       -0.21515777330230       -3.40704130397295
C            5.64514429381249       -0.67982008063857       -2.37974328127341
C            5.54373829347392       -1.69769995305813       -1.42732791629996
C            6.58034238032483       -1.88022808685197       -0.54814501203232
C            7.71586565450134       -1.06274532192193       -0.59236269318297
C            7.82925193386749       -0.05453198789633       -1.51585933431752
C            6.79059154009836        0.14357616788459       -2.42723248155309
N            6.62998910921215        1.10374361605033       -3.44647909373974
C            7.50676950180182        2.19676469913429       -3.76011056429292
C            8.86017923467044        1.97982687682509       -3.99013274823769
C            9.69690910882908        3.03432515640351       -4.28027347356552
C            9.19520472330112        4.31937466601915       -4.34389044354729
C            7.85243197371433        4.54748256336686       -4.11708249884178
C            7.01402558909911        3.49474801487699       -3.82708179906075
C            1.20155200170578       -1.02941062672666       -3.28274834759594
C            0.29060636505831       -1.95687196894704       -2.83742629485889
H            2.26288360923796       -4.67587567724308       -2.74147419215991
H            3.90549323735430       -3.01735859637267       -3.55824538571088
H            1.39851631982115        0.13205789323378       -5.84920754112233
H            1.58859228734075        1.94396185218936       -7.50581088642470
H            3.60064502577015        3.35043341085042       -7.60067609439517
H            5.46931549277678        2.97030095834572       -6.03720056181677
H            4.66231848090578       -2.31143885423581       -1.38948292596948
H            6.51936905818684       -2.66150898304650        0.19128202818446
H            8.51188637568158       -1.22631187599774        0.11518038944657
H            8.69338088205719        0.58420345797822       -1.54396434998535
H            9.24050312537463        0.97428812391393       -3.95029453951478
H           10.74467969432688        2.85656996129316       -4.45868906941909
H            9.85131675191996        5.14392412389699       -4.56946949874447
H            7.46083791488840        5.55035273807300       -4.16376910807812
H            5.96902311292500        3.66361331917908       -3.63475299494977
H            0.91307271646353       -0.00211682918664       -3.41944095023348
H           -0.72749423854625       -1.67420124103870       -2.63188462578698
