32
 energy: -4.659636080751 gnorm: 0.000641190445 xtb: 6.5.0 (97a52f5)
O            2.10121701087266        0.20280479759196       -0.74140407330688
N            2.97681635004952        0.30749044597010        0.13563066615580
O            3.51713033769550        1.39321962377252        0.40647608219207
C            3.36903585871246       -0.86207317982513        0.85089308617620
C            4.22170389583306       -0.86436336610337        1.85214463877572
C            4.62655256181025       -1.90616122416244        2.54684754096337
C            4.26797531779463       -3.17016749698674        2.37382840217475
C            4.69818923065302       -4.24329216486581        3.11235171393888
C            4.38379389182137       -5.47621683408442        2.91518537184207
C            4.80018325579231       -6.59133370038457        3.65212210009299
C            5.60648200545642       -6.53097813444895        4.73322265929817
N            6.02317347970091       -7.62651576652443        5.47778607739675
C            5.72925061135450       -8.88440385142891        5.27640758384620
C            6.09848143550216       -9.97922434060439        5.97869335200377
C            5.74479196973810      -11.29106033391272        5.69388294291632
C            4.95269175032048      -11.74462870427489        4.64911063692114
C            4.38417844694998      -10.97018916307207        3.72184590566769
C            9.20756670818496      -10.71726564195277        2.23064003041563
C            1.37464464175425       -4.26817324545609       -0.12171232002722
C            0.15465723086813        0.68168630108367       -3.27396141693979
H            3.13179753854258        3.44895079599737       -0.35406614593051
H            8.93400230764520        0.50747239471203        2.90806438105637
H           10.57104843559945       -3.13274063767064        6.49724686017856
H            4.44844755940184       -7.55563110938370        3.32833536862120
H            5.95043935197290       -5.55884187647714        5.04493111642466
H            8.47642265446540       -5.72630714665152       11.56207745147808
H            6.72662816554328       -9.80986220233615        6.83867014334069
H            6.13143534722256      -12.04541431227390        6.36240138666794
H            4.78325735166290      -12.80851750130168        4.58138438623292
H            3.78590145487446      -11.32119284022257        2.93261638964526
H            0.55018750749838       -8.12349343434342        4.34311838955800
H            0.42572632658838       -4.36861614412335        0.24606930045098
