44
 energy: -9.505879436553 gnorm: 0.000884143722 xtb: 6.5.0 (97a52f5)
O            1.41867979588010       -0.97385831875863        0.12519429175385
N            2.28060199230122       -0.11964079865789       -0.13933445351374
O            2.60172575491414        0.17103251524712       -1.30311053702513
C            2.94447657802474        0.57106350302799        0.96539494473146
C            3.82712907667148        1.60462331724265        0.71129084634878
C            4.45281109582248        2.25407481090845        1.74822932555051
C            4.21613846554736        1.88399636953858        3.07569116964660
C            4.89347548618333        2.59181332245954        4.14733987091125
C            4.91293172020608        2.21346118566893        5.43720851018716
C            5.58584594165610        2.92283945316317        6.50974746161279
C            5.72142486489485        2.30685709805052        7.77260709338216
C            6.35086788880068        2.94114004426438        8.79891907600350
C            6.88278362537742        4.23738297663056        8.63785465227565
N            7.50201200784712        4.84145415301313        9.67029960544739
C            7.95016158763287        6.03688685774389        9.41014321212093
N            7.89243108969618        6.75364439413804        8.29650389357893
C            7.29023572384814        6.18592816981442        7.26556970900759
N            7.18196411263392        6.87983664700926        6.05780904244164
C            7.64428363505567        8.17109573480086        5.74520590683980
C            7.39789414674522        8.70885827356589        4.48199958872282
C            7.84089551497995        9.97033389674952        4.15575206964553
C            8.53947846792644       10.72233311221292        5.07967604914875
C            8.79334283578647       10.20624184348164        6.33466237234960
C            8.35004105792158        8.94636979787477        6.66081557539143
C            6.74902556040337        4.87371193763267        7.38780571938636
C            6.09928420443946        4.19498639373726        6.34423555940419
C            3.31852400885624        0.83900807196855        3.31466212665083
C            2.69418940842460        0.19582511158284        2.27258117597864
H            4.01471076092610        1.88745698988817       -0.31039623921960
H            5.14005796389719        3.05659066510262        1.54208394480379
H            5.44038249621621        3.47059579784527        3.85993698952263
H            4.41800821755333        1.30044967932147        5.71206952893897
H            5.32318374201211        1.31702543903249        7.91425753833388
H            6.45440703187117        2.46295608201300        9.75700391663102
H            8.44705436975492        6.52694088695562       10.23651011181228
H            6.69704322636114        6.41446734761589        5.30052704977935
H            6.85300868848944        8.12437550361759        3.76154846890774
H            7.64168191295010       10.37317419107572        3.17626401966381
H            8.88534566407150       11.70985817267827        4.82196685406083
H            9.33819533665311       10.79091498163094        7.05756808766235
H            8.54243270918444        8.54321541074384        7.63560496459717
H            5.98340625332153        4.67587860790093        5.39489452098301
H            3.09921217047071        0.54237279766718        4.32461089964771
H            2.00126380779002       -0.60733242719482        2.45697548590057
