42
 energy: -9.256758922906 gnorm: 0.000759360877 xtb: 6.5.0 (97a52f5)
O            2.01945368744141       -1.75982035998123       -1.25516860691291
N            2.57493625036877       -0.77934444297531       -0.73589709551503
O            2.77572560048693       -0.69242681280942        0.48540805763448
C            3.01081034493401        0.31900103381556       -1.59892081005501
C            3.56463392964519        1.45932741031092       -1.04862632590854
C            3.97354530957849        2.49290248126408       -1.85670516169503
C            3.84150119368509        2.41270647762330       -3.24502360659002
C            4.28545610299841        3.52018383145416       -4.06838479552090
C            4.29997251477207        3.55137240911778       -5.40918572755016
C            4.75835924215629        4.70138355111268       -6.14139830627670
N            5.19232581014503        5.81870100276740       -5.56147506904322
C            5.52243956954687        6.63920845507507       -6.57126451883673
C            6.04388148111149        7.98378898582977       -6.53146018740614
C            6.28201511776843        8.62023477106770       -5.31350882046532
C            6.77270135415403        9.89793774856676       -5.27952894177100
C            7.03594797202728       10.56728159124548       -6.46439260865831
C            6.80898949574023        9.95826522624696       -7.67299520380498
C            6.30794245254190        8.65248414187192       -7.74805684748103
C            6.05535268135953        7.97943371281415       -9.02815143683497
C            6.29994235571434        8.59372847836552      -10.26273472195634
C            6.05472471657604        7.94159779674299      -11.44511421367076
C            5.55465809940716        6.64846380176780      -11.44497334602061
C            5.30319775986016        6.01527406444073      -10.25767318432552
C            5.54627734824954        6.66182790519384       -9.04667248915078
C            5.27979589585882        5.99600573252346       -7.79931059572254
O            4.79279179901214        4.75828931873572       -7.51783239980470
C            3.27782896084960        1.25447185879241       -3.78553977664015
C            2.86949365016600        0.22552521243413       -2.97064746457905
H            3.66732933462691        1.52118689151107        0.02128307431008
H            4.40342628226203        3.37839440390624       -1.42105141791531
H            4.63978536839920        4.39492067878535       -3.55324177390718
H            3.97301675941963        2.70517332277480       -5.98193466375181
H            6.07200206948752        8.08911763120885       -4.40167212422261
H            6.95341315704400       10.38328361381009       -4.33447103672158
H            7.42093039263131       11.57344066649012       -6.43399728381285
H            7.02167981061737       10.50183378354055       -8.57498334296338
H            6.68711524454162        9.59541755699995      -10.29473875380879
H            6.25165383701287        8.43633242388739      -12.38206057832973
H            5.36533051533168        6.14350971273545      -12.37802254223961
H            4.91514459798944        5.01126842954549      -10.23960934440388
H            3.15298760471793        1.16706988773704       -4.84990721051358
H            2.43197432975249       -0.66609438635238       -3.38645879717754
