28
 energy: -6.175089649139 gnorm: 0.000472404745 xtb: 6.5.0 (97a52f5)
O            1.16604925444785       -0.09464336596076       -0.65208578824242
N            2.22331339467345        0.00254291436684       -0.01663984989332
O            2.64901918739163        1.08223682713218        0.41191907371153
C            3.00249749104385       -1.20965836799593        0.23854505813961
C            4.15068139264246       -1.14868168570874        1.00355565200028
C            4.88652417904372       -2.28663032244720        1.24238603038163
C            4.48620678576748       -3.51170929432973        0.71942846546060
C            5.24199754785141       -4.67586590398509        0.96046608815256
C            5.90390423346229       -5.68177985561626        1.16232312347388
C            6.67462586105629       -6.83914417616500        1.38824918385703
C            6.42032801908324       -8.00939339679360        0.68077930550092
C            7.17797018423274       -9.13750564555337        0.89698664195676
C            8.20340800670191       -9.12104013044761        1.82192508146356
N            9.00896566664121      -10.32166803790939        2.04881543446068
O            8.75353821814454      -11.33961168253534        1.39373930331870
O            9.91722776473335      -10.27676913520955        2.88765366561789
C            8.46391440736322       -7.96533203550221        2.53178432081716
C            7.70850716056033       -6.83503587048677        2.31873631225301
C            3.32777867538594       -3.56103030495665       -0.04888839714672
C            2.59506866831831       -2.42060253235388       -0.28585360884481
H            4.45798738737565       -0.19723606613418        1.40476592597729
H            5.78287547805195       -2.23948745716776        1.83747722703268
H            5.62154754120608       -8.02118124503244       -0.04144489135831
H            6.98557217084917      -10.04591632695978        0.35064291036421
H            9.26606994845677       -7.96708726469030        3.25101257176274
H            7.91139940772615       -5.93338821529748        2.87161174600420
H            3.01096379575997       -4.50551777757258       -0.45793808477778
H            1.69661817206553       -2.45383364468734       -0.87952250145790
