46
 energy: -10.428899837934 gnorm: 0.000907251363 xtb: 6.5.0 (97a52f5)
O            1.41185811463911       -0.73499515144387        0.04270525482540
N            2.53196534089873       -0.20579476876322        0.02084733848692
O            3.20499826134054       -0.10166677422831       -1.01448779072877
C            3.08404866249140        0.31981449060710        1.27236591472141
C            2.48347068057043        0.01694202499418        2.47867280422418
C            3.00120399402423        0.50914456251863        3.65511002541228
C            4.13404464296459        1.31641657334283        3.64815087674138
C            4.66428936413151        1.82458395195491        4.85098817624926
C            5.11992818355309        2.27505644289562        5.89029584324172
C            5.64446396618494        2.80901982420174        7.08472130006773
C            6.36277066168932        1.99121763457119        7.98286171118943
C            6.87194133583937        2.49481050082938        9.13990373228477
C            6.69443560124019        3.85531042535487        9.47369281064490
C            7.20595565626875        4.41367423909810       10.66549859022364
C            7.01513586969890        5.72971247259787       10.95406652183594
C            6.30384169941305        6.57377549070590       10.07492781575217
C            6.10983175830756        7.93523834638510       10.38434383894293
C            5.93068319867786        9.11569508804906       10.63949621374935
C            5.71181517819745       10.47922556121582       10.92086618824793
C            4.49367400240155       10.91138324420286       11.43502175865597
C            4.27737001198520       12.24452205153779       11.69986215827415
C            5.27036171553010       13.17332085872209       11.45784787998918
N            5.03754315287676       14.59210129519247       11.74095563207568
O            3.93559085791567       14.93396082363040       12.19313002978880
O            5.95080399084317       15.39950124734529       11.51818851875493
C            6.48481581952206       12.75560800271108       10.94985567622837
C            6.70535486290095       11.42341039552313       10.68341052289312
C            5.79982377553591        6.04838644922866        8.91247936558039
C            5.97852243145934        4.68800183897372        8.58303942062141
C            5.46338953574035        4.13341702931545        7.39218354315474
C            4.73053801537613        1.61393792135138        2.42720005344917
C            4.20959631301283        1.11980374060666        1.25310442108455
H            1.60492466846833       -0.60557647231663        2.47991796321265
H            2.53247695300415        0.27444821620027        4.59550459556464
H            6.50216706621752        0.95300515707350        7.73495410140846
H            7.41711889358252        1.85892357426387        9.81557200579418
H            7.75005424123247        3.78167009718066       11.34566054592442
H            7.40735249676580        6.14816181297637       11.86501023110699
H            3.71888362512910       10.18748550698131       11.62167753935029
H            3.33568918293869       12.58263246159157       12.09770153511561
H            7.25138160344536       13.48933374783469       10.76707612818643
H            7.65129657024362       11.09794787018669       10.28544035117482
H            5.25667952886185        6.68641699907832        8.23900751214692
H            4.91648244718720        4.76142416048992        6.71238128360921
H            5.60776100895815        2.23796383205126        2.41244482565339
H            4.67022505873347        1.34605720316712        0.30652523512146
