68
 energy: -13.035358729160 gnorm: 0.000749737991 xtb: 6.5.0 (97a52f5)
C            0.62798552775067        0.07825497462061        0.26234899067190
C            2.14749567486429        0.02207664900389        0.01717797560030
C            2.43122667289692        0.08013133464306       -1.49578486890803
C            2.79201953522262        1.25590983872484        0.67896120332078
C            2.70558881542960       -1.29126711937006        0.58763567470630
C            3.68946887899662       -1.31131507474842        1.59481698886088
C            4.19371354651514       -2.48421142394593        2.10049689760392
C            3.71458358134409       -3.69315035364350        1.60305764347352
C            2.73869493024065       -3.69494516716445        0.59525414693079
C            2.23649677895805       -2.49375568846413        0.09428664333630
C            2.46703086169910       -5.07299506034199        0.26376316035246
C            1.59369303984435       -5.66251646337813       -0.65044333281835
C            1.53350914415506       -7.03882299426899       -0.75721008808502
C            0.56707224935058       -7.67020325147614       -1.77181940467299
C           -0.87355904340748       -7.23760022776575       -1.44001509814721
C            0.93762210622434       -7.19539905827588       -3.18937678344722
C            0.62931773309816       -9.20989426322731       -1.74382809963159
C            2.36362775936390       -7.81828001357642        0.07112667249193
C            3.22942506171179       -7.25483326706105        0.97601596541045
C            3.29060687951764       -5.86734443393512        1.07540174768299
N            4.05995189634991       -5.02636410822438        1.90609158704902
C            5.03485690265775       -5.45133243282412        2.87225878412716
C            5.00747765323559       -4.96645361204948        4.17451134004837
C            5.95026416081849       -5.39111393372467        5.07254794319190
N            6.89496426809969       -6.27388263546477        4.70610594678424
C            6.97338667820540       -6.76754691767146        3.44100108408631
C            6.02457086244254       -6.35339519909281        2.51802699489716
C            8.02147332105842       -7.72719411393112        3.11372203380632
C            8.32798613664887       -8.09095946419487        1.80546684749513
C            9.28622556463221       -9.04364622955257        1.54078287387946
C            9.95832897837219       -9.65981402643523        2.57992474806124
C            9.67958606401183       -9.31558076641221        3.87949304744954
C            8.72293087639522       -8.34168184839080        4.17352460499629
O            8.46948642871090       -8.00638653820551        5.48296114514330
B            7.98420951372510       -6.63320949241965        5.72983904873889
F            9.02869793637210       -5.74097668784544        5.55878168391841
F            7.45250315017579       -6.53212682586155        7.00319416192055
H            0.20661157325987        1.00847432256402       -0.11717110978731
H            0.40789754064022        0.01753959784325        1.32755116575048
H            0.11593798488645       -0.74527613844020       -0.23269610719222
H            2.06653927441169        1.01244352888477       -1.92521421365274
H            1.94582431157594       -0.74028626992495       -2.02179062354318
H            3.50133432090051        0.01518029773355       -1.68894031072700
H            2.38377601367068        2.17544476911757        0.26141688854615
H            3.86881952963588        1.27082580935725        0.51532024765082
H            2.60201130825975        1.26963889893359        1.75138108518148
H            4.06527958640251       -0.38230914156071        1.98361225430044
H            4.95447555889234       -2.48465205515494        2.86024716609437
H            1.49055511139991       -2.51849541477407       -0.67769545507689
H            0.97465397705465       -5.03524288426872       -1.26387905035489
H           -0.98739452344385       -6.15676061769461       -1.50361337726639
H           -1.14407576204706       -7.54413178133176       -0.43040302984843
H           -1.58458654635118       -7.68793679733069       -2.13146354092520
H            0.85658069155690       -6.11329161978485       -3.27824343174310
H            0.27927899459582       -7.64082635740422       -3.93416605017844
H            1.96163182273396       -7.47561710188109       -3.43305533449711
H            0.35797761750013       -9.59539006330103       -0.76185350010236
H            1.62743190504453       -9.56670215840030       -1.99467769878930
H           -0.06358197133619       -9.63753119896044       -2.46754186843950
H            2.32319492534256       -8.89005523444575       -0.00056477658599
H            3.85015629266157       -7.86267467109407        1.60946236840911
H            4.23838655840459       -4.27242330371542        4.46459120095417
H            5.95814967804700       -5.02909253081808        6.08616132150360
H            6.04016807302117       -6.73028141298689        1.51350358131679
H            7.81682517519957       -7.61631411091173        0.98717618185825
H            9.51025461061302       -9.31282931212776        0.52161607588255
H           10.70423253272258      -10.40858813487931        2.36926383208918
H           10.20000370907427       -9.78408301725846        4.69575619883844
