32
 energy: -7.099035040241 gnorm: 0.000798567110 xtb: 6.5.0 (97a52f5)
O            1.00916280512700       -0.19668759573893       -0.61881938193839
N            2.10985597945270        0.01314068193050       -0.08506717701025
O            2.55426412941710        1.15492065076015        0.11223456848664
C            2.91888266864568       -1.13613924334911        0.33039138106720
C            4.09406270742245       -0.94314774033593        1.03010369367987
C            4.85295782871455       -2.02125705552890        1.42573888515325
C            4.45072370713465       -3.31933919154357        1.12818608632181
C            5.22551992690125       -4.42366819128832        1.53764663648789
C            5.89832598230835       -5.37668545875359        1.89851554768789
C            6.67737126083400       -6.47159953071706        2.32576575531040
C            8.04639364730806       -6.54749952084530        1.98928236137923
C            8.81487859033777       -7.59254710166024        2.39908949599450
C            8.26066452990689       -8.63401706856732        3.17693203060000
C            9.02944976358425       -9.73087191582662        3.62384609421219
C            8.46187710486907      -10.71520931341246        4.37490225433345
C            7.10545727834837      -10.65563136997205        4.71543084090699
C            6.33492043700937       -9.61248947378956        4.30099063766535
C            6.89024659398360       -8.57302043559904        3.52130176198040
C            6.12185304262103       -7.47508019772979        3.07859058256406
C            3.26586833492880       -3.50187583743702        0.42220828209051
C            2.50997969075033       -2.42066766166052        0.02862805507720
H            4.40360207211570        0.06219748849312        1.25866894498037
H            5.76861744174905       -1.87056498444899        1.97136535196546
H            8.47544888275497       -5.75651138150766        1.39866795655475
H            9.85751228327753       -7.63657001759754        2.13672060640271
H           10.07240630010992       -9.77739426295292        3.36276241605900
H            9.05849818168347      -11.54706477462787        4.71114847119108
H            6.67138894717448      -11.44230234237294        5.31029039124514
H            5.29232108167248       -9.56754201793592        4.56371376727605
H            5.08022092853098       -7.42290330792509        3.33890389015214
H            2.94618078897445       -4.50282240814680        0.18827776114525
H            1.59189708235494       -2.55902941991211       -0.51608794901193
