36
 energy: -6.206785773504 gnorm: 0.000903032903 xtb: 6.5.0 (97a52f5)
O            1.57603628224010       -0.39591839625887       -0.72023453700334
N            2.57937476338430        0.19430115902102       -0.31377284088585
O            3.13129608301268        1.08911566610652       -0.95852339604022
C            3.13604964099045       -0.18151071238097        0.98088305250891
C            4.27249391885797        0.44393234911938        1.45754511018341
C            4.80114762967702        0.08655853853214        2.67386275564289
C            4.20581569637098       -0.91224572305062        3.44349775285942
N            4.76627726564091       -1.27045823564635        4.69291166134434
C            4.49473243026547       -2.33032352006726        5.47466589455441
C            5.10341952955864       -2.55234370419482        6.69212527971811
C            4.83829477179584       -3.64882510795551        7.48577009986937
N            5.41718040282697       -3.85372096013755        8.68192346626230
C            5.24881633192193       -4.92976027005891        9.58617106903551
C            5.72564451165769       -4.82141679195622       10.89199779433718
C            5.56770377433117       -5.85353484309507       11.78427968774935
C            4.93583677466674       -7.01969383141490       11.39614568055323
N            4.77138813270763       -8.11516485936157       12.34490103719942
O            5.19224539752050       -7.97028274847681       13.49530671028039
O            4.21690385323176       -9.14949777883482       11.96494423854478
C            4.46439600518624       -7.14307743979829       10.10282442645460
C            4.61774418052152       -6.11320821278779        9.20660671228373
C            3.05699549982909       -1.53071023341437        2.95296421266909
C            2.53135162545126       -1.16782586534787        1.73683449082037
H            4.73294710746206        1.21341821274780        0.85692431367942
H            5.69030669323839        0.57444472361840        3.03765694003853
H            5.48365394876992       -0.63654888608819        5.03634617583125
H            3.77837038591752       -3.04865344843054        5.11670199518090
H            5.82208688266724       -1.83245029860573        7.04141147528181
H            4.11644898722454       -4.37044516449965        7.14561138753493
H            6.05958291538860       -3.13028205185287        8.99563562363479
H            6.21466521956501       -3.91294766871424       11.20242067516899
H            5.93192185808271       -5.77179427011365       12.79693998656148
H            3.97866518902572       -8.06227351379676        9.81297447467978
H            4.26350804844772       -6.22959182602053        8.19695374981950
H            2.56589321043648       -2.28731983502092        3.54009151526842
H            1.64128505212538       -1.64295445176133        1.35353132838057
