65
 energy: -13.471968426596 gnorm: 0.000803907407 xtb: 6.5.0 (97a52f5)
O            1.66274793756771       -0.78158371872742       -0.88258645407816
N            2.41139001615548       -1.51024062974846       -0.21541193339260
O            2.16275946716813       -1.83441586895374        0.95459299603493
C            3.62037813093213       -2.02534458497011       -0.84455260842431
C            4.35645709913370       -3.03040712738742       -0.24093667651252
C            5.43621930327503       -3.57260278612253       -0.88516566856230
C            5.80777453350907       -3.14442251773753       -2.17016143864187
N            6.80740803484192       -3.85358224771714       -2.85791936152475
C            6.49632240531322       -4.55661535925067       -4.10488072319376
C            5.76936236023867       -5.85500143083583       -3.83337361482767
N            5.26648444931367       -6.48747296711190       -5.06871838100928
C            3.81326094377282       -6.35908913404763       -5.31664667611197
C            3.21048646005788       -5.05689167657184       -4.89064637393033
C            3.36802950088897       -3.92942234662143       -5.71460494446371
C            4.21726395170647       -3.93988175937659       -6.85639490999980
C            4.33994495155453       -2.84964809744569       -7.65194624340996
C            3.62702386462588       -1.67235929121933       -7.36487761468169
C            2.81902709886650       -1.60648173159808       -6.27897916727671
C            2.67374544435027       -2.72185928647805       -5.41020677647768
C            1.88362482942863       -2.65686161077632       -4.26964431396386
C            1.78239560268959       -3.73636183675269       -3.40033073957805
C            1.01596318015663       -3.64663878023605       -2.20705424915785
C            0.95070148010459       -4.68784747700203       -1.34361529501633
C            1.64636784214751       -5.87856810309095       -1.61373119314096
C            2.38067710970526       -6.01065615867557       -2.74551904940427
C            2.46865404323671       -4.95295956464718       -3.69772289002024
C            5.91555503395693       -7.66450957492856       -5.54440058885109
C            6.31258300241897       -7.78018410338768       -6.88248535685815
C            6.95786945327542       -8.90558446031040       -7.32426641863452
C            7.22146968062160       -9.95260818146221       -6.45364427677450
N            7.91100300276338      -11.14716035990120       -6.92762559573397
O            8.28243716526573      -11.19067119541535       -8.10879131506223
O            8.10098172015620      -12.07777162911707       -6.13195068419175
C            6.81557876924222       -9.86623156708366       -5.13767763371952
C            6.15760187973204       -8.74710429726337       -4.68020621293517
N            5.65160062847330       -8.71191524085311       -3.30938210888112
O            6.43900159097358       -8.95363360034503       -2.38379079832189
O            4.45805010000367       -8.43315544079298       -3.11985781801044
C            5.08066844237385       -2.08310168332130       -2.75381302723811
N            5.43898141837152       -1.44879400193392       -4.02127094993159
O            4.81188909834224       -0.43350206201723       -4.35988160570063
O            6.33782269928246       -1.92610496416922       -4.72422015002019
C            4.00635970136026       -1.54859734486907       -2.07865972184580
H            4.05337979852463       -3.38533276161171        0.72973619249669
H            5.98737039434272       -4.37404765188763       -0.42492576539285
H            7.41040504836020       -4.44702624629216       -2.29079588623943
H            7.41183267177464       -4.72128984815458       -4.68377415369993
H            5.86535531216580       -3.89972987186271       -4.71133708344950
H            4.93443673983193       -5.67889207508154       -3.15254584545662
H            6.42867181129160       -6.55771601691609       -3.31663805830987
H            3.31885281721576       -7.19932587053279       -4.82512271761708
H            3.63671610042923       -6.51389766170616       -6.38410743782919
H            4.79885458089671       -4.81913790006307       -7.06446999875523
H            4.99653685781149       -2.87650791221438       -8.50634109636941
H            3.74008616406213       -0.81317032890972       -8.00596084641880
H            2.29601805260774       -0.69476262523077       -6.04653495340991
H            1.36519115347584       -1.74410038535273       -4.03817596323907
H            0.50415468857949       -2.72547869211920       -1.98536448003501
H            0.37586577665093       -4.60085691399891       -0.43589476308982
H            1.60326636290662       -6.68837116200666       -0.90356478370059
H            2.94963047550881       -6.91219555448456       -2.89374815689921
H            6.11975687540777       -6.96307438035068       -7.55497357157037
H            7.27365327200194       -8.99423024496932       -8.35024801023799
H            7.00945939402934      -10.68602091907093       -4.46750749811105
H            3.45103222470499       -0.74273917703920       -2.52772655918937
