51
 energy: -10.300343067652 gnorm: 0.000637447274 xtb: 6.5.0 (97a52f5)
O            0.81769696505692       -0.28516498443463       -0.20393060961727
N            1.92755985220438        0.14986468079687        0.14293252694372
O            2.29390384847755        1.31258743804713       -0.09097591964974
C            2.83825625855349       -0.74256193655210        0.85383214347648
C            4.10934069187312       -0.31382735305834        1.20314822655597
C            4.96583836624844       -1.15267180075863        1.86748412632835
C            4.57972929584896       -2.45420032095121        2.21034939864354
N            5.46681460787976       -3.27057385010330        2.89661914703758
C            5.18017664934057       -4.59971455153838        3.42236815368589
C            6.35072334395555       -5.23605586176497        4.15135550776643
N            5.99771499864984       -6.52608412383951        4.74296236076807
C            7.06627273413503       -7.22404797733217        5.45222348448722
C            6.60267636439246       -8.51607193649506        6.05423927796322
C            5.77545195284289       -8.47134867713851        7.19054280013745
C            5.29244677596521       -7.24464146827833        7.72833470655766
C            4.52196620348400       -7.21787097531694        8.84377966568259
C            4.16937384374402       -8.41206161134651        9.49747297659738
C            4.58295734237369       -9.60787675953058        9.01119510841804
C            5.38751559676281       -9.68010449221221        7.84100380133512
C            5.79970031666134      -10.89919949488330        7.31846263363278
C            6.57032593473888      -10.96506983211378        6.16366583586494
C            6.96563285638836      -12.21771993272453        5.61975548265098
C            7.70207688258562      -12.28169271073309        4.48453753794685
C            8.08364156991621      -11.10338365682192        3.82027069677472
C            7.73272239901205       -9.88761047305828        4.30858098307374
C            6.97234337159886       -9.76048403456922        5.50784468660525
C            3.28930959492973       -2.87896338531136        1.84407885558094
N            2.81386628620595       -4.22943494329491        2.15175379258587
O            3.03970202378264       -5.13936592298180        1.33686834980815
O            2.20056556068110       -4.41497103614225        3.21570187657523
C            2.44107345106189       -2.02375136402742        1.17602993329407
H            4.40744675542395        0.68745118151160        0.94315351412718
H            5.95040917590550       -0.81386282780667        2.13787593065720
H            6.37510135183981       -2.91202594927542        3.18148023527478
H            4.86470676954065       -5.23532316401562        2.58900551029851
H            4.31744915884914       -4.52486738711742        4.09260438662779
H            6.69252395929493       -4.57663654728775        4.95532890184076
H            7.20168912878737       -5.36209248680026        3.47322627479040
H            5.58030658617805       -7.13810369603524        4.03760042092221
H            7.44091988576210       -6.56813265608502        6.24411669826580
H            7.91841065505515       -7.37160983378947        4.78463657014161
H            5.51667286073624       -6.32788902618217        7.21431600372639
H            4.16663628638030       -6.27686173883705        9.23047933254833
H            3.55914215560762       -8.37248583639624       10.38471521570766
H            4.30427208560165      -10.52138868274724        9.50726085759796
H            5.50481311939870      -11.80919127708258        7.80858922185994
H            6.66727599602500      -13.12051932998964        6.12403877614458
H            7.99289198938311      -13.23796790502219        4.08185402781500
H            8.65676333377234      -11.17238969072119        2.91019831545880
H            8.01470621274481       -9.00777710856772        3.76074235855226
H            1.45654659436750       -2.35687268929220        0.89933990012854
