52
 energy: -10.823283751896 gnorm: 0.000332295950 xtb: 6.5.0 (97a52f5)
O            3.37625429076941        0.65889728207518        2.60459842703632
N            4.26829620419438        0.82837537800262        1.75739037564040
O            4.88234634531407       -0.11476864552624        1.23183993769001
C            4.61040369646394        2.19304675043965        1.36109129739717
C            3.96436963798138        3.27550042711402        1.93753400765309
C            4.28545485232173        4.55598933845923        1.56840410367720
C            5.27116152556382        4.80055525968654        0.60457056806758
O            5.63472865849292        6.07594711952021        0.24856609016469
C            5.92887463175829        3.69285958150088        0.00942876240465
C            6.95718596000182        3.89818017564703       -1.04011833097518
N            6.51092254844172        4.29133318507105       -2.23763844190571
C            7.38591992790474        4.37259455834656       -3.22807567394529
C            8.74703923939855        4.06055732794831       -3.10539560790434
C            9.19991522554784        3.57613887882917       -1.87341127974960
C            8.30719532452264        3.55860525929709       -0.80286083724791
C            8.79712909835210        3.14397801685846        0.53189287598695
C            8.26259288702166        3.65258611630936        1.71397574119429
C            8.73897066598672        3.25105956927558        2.94059787646226
C            9.77628456468913        2.34614421047257        3.01422004394808
C           10.34905102358071        1.86165787331754        1.85672120046210
C            9.88038731493283        2.25901055870325        0.61624658733234
C           10.55073091277655        1.82003122670978       -0.65176362357414
C           10.56551884632208        2.96291763276519       -1.68759818332770
C            9.61801914978354        4.21314028999174       -4.29769933939516
C           10.97229337754671        4.53127165110732       -4.20309029940687
C           11.75597105189691        4.65204413780169       -5.32859215894882
C           11.20083935505648        4.48395680743595       -6.57872942621352
C            9.85185197056368        4.22640760906225       -6.70017349011728
C            9.05081154685376        4.10541735803388       -5.57739835501787
C            7.56253184232130        3.95528230716660       -5.70117100208664
C            6.84874393330632        4.73798336715688       -4.58372812851239
C            5.58004637309352        2.40814745084121        0.40744621963459
H            3.20826877269185        3.09033578940286        2.68115039303088
H            3.78353581397116        5.38929624558017        2.02598214139404
H            5.09238204172973        6.73097918342439        0.72969321122329
H            7.47948584403959        4.38708652086401        1.66018654183536
H            8.30380725684236        3.64712617244519        3.84339225580110
H           10.14954796871962        2.02990280408586        3.97443226578305
H           11.17694217818788        1.17601905535239        1.91114487564729
H           10.01706784703950        0.95279337263506       -1.05644907903233
H           11.56953632930230        1.47711762222489       -0.43474360935330
H           10.93692361778627        2.58906515233663       -2.64892705806518
H           11.26423259388368        3.73920631551312       -1.35710420464144
H           11.40331499089906        4.72910056311810       -3.23858547957072
H           12.80355837765255        4.88605569940334       -5.23253862696624
H           11.81436878051716        4.57717033133277       -7.45972481004214
H            9.40694727943968        4.13343500527569       -7.67592523172839
H            7.30254619789520        2.89255935943501       -5.64169815445965
H            7.23268189461522        4.29698323583726       -6.68957333867431
H            5.76833869142921        4.55348265964013       -4.60166575392483
H            6.97637421497806        5.81512510984138       -4.73701883618327
H            6.07100732562559        1.56205174282046       -0.03847743850611
