16
 energy: -3.125190159832 gnorm: 0.000745414029 xtb: 6.5.0 (97a52f5)
O            1.13116195148059        0.61523727375964        0.32271893987867
N            2.17733704237429        0.08747457550239       -0.07240973496880
O            2.55148691907402       -1.02552952571667        0.31579077848158
C            3.00411489468249        0.80468582093600       -1.03483463079034
C            2.62763496755070        2.05573975847649       -1.48142998791032
C            3.40612566277554        2.73890497117924       -2.39119392072822
C            4.58297591140328        2.17787952912906       -2.87146765405339
O            5.42394984325169        2.78399837218916       -3.77674749410186
C            4.96968911227241        0.89411594931881       -2.41329219701809
O            6.13608398811016        0.34927002210548       -2.89584196591951
C            4.17204030933917        0.22890387700282       -1.50127021337877
H            1.71361756652476        2.48615173292224       -1.10528799081423
H            3.10478855448586        3.71312318806196       -2.73410692525614
H            5.08871963579775        3.65724051525063       -4.03689111755631
H            6.54372625689939        0.97801845393904       -3.52019275171845
H            4.46513738397790       -0.74543451405630       -1.15221313414582
