15
 energy: -2.997840582559 gnorm: 0.000191952267 xtb: 6.5.0 (97a52f5)
O            1.27231058754603       -0.33126077834950       -0.60673744476082
N            2.26342641990323       -0.04050635537372        0.07514875755914
O            2.72670342132858        1.10606815034175        0.12508510621569
C            2.91147801618568       -1.09199743183310        0.85199545646619
C            2.44205519252285       -2.39205334041832        0.78987878086951
C            3.04525278022443       -3.38624956323878        1.51828004840708
C            4.14488449971368       -3.09989949940459        2.33459529976663
O            4.78361960630998       -4.06349696506193        3.08326251747307
C            4.60734304716804       -1.78112081929803        2.38731957916582
C            3.99728852741323       -0.79440868589511        1.65573812670401
H            1.59384479064391       -2.60614757737713        0.16033452528694
H            2.67318761895668       -4.39401684040519        1.46620526937853
H            4.37021836445585       -4.93545071966431        2.96154493197497
H            5.45280562097481       -1.56189935371788        3.01607354093014
H            4.35182150665305        0.22259977969585        1.69431550456312
