132
 energy: -26.057985471595 gnorm: 0.000222810894 xtb: 6.5.0 (97a52f5)
C            2.30626532566693       -0.62348316270359       -1.62078669795729
C            3.82689718339519       -0.77095853788901       -1.42404293838523
C            4.14478741051341       -2.26510926575740       -1.21761817304471
C            4.56316644981666       -0.28797072448499       -2.68704852545244
C            4.26730776099789        0.07714626681734       -0.22039945307243
C            4.03934720425580        1.46474731282402       -0.23620865566912
C            4.37425393124833        2.27569201885836        0.82056707662986
C            4.96104511615658        1.70454606334291        1.94694447731320
C            5.21714737634690        0.32492357557164        1.97253202275418
C            4.86625161200731       -0.48449275395791        0.89268179308647
C            5.78222876101218        0.01647725893040        3.26512157061118
C            6.14881239053947       -1.19091304380333        3.85906114240728
C            6.58290642722029       -1.21111186794051        5.17160632330545
C            6.95076547400203       -2.55430023509753        5.82176957316118
C            5.70401951703891       -3.45772439886006        5.85450912504780
C            8.06230645411904       -3.23412504341229        5.00055088923218
C            7.45843490876607       -2.37413060466113        7.26595327973550
C            6.63775217056491        0.00181353177071        5.88193682721123
C            6.27666045836616        1.19870619739007        5.31311767673664
C            5.85015460309609        1.21762376765783        3.98707893072975
N            5.34973678029662        2.27046401674240        3.18339282317333
C            4.94344693873384        3.55224478677319        3.69047661603069
C            3.63522100768790        3.98989813891111        3.50268744866392
C            3.16229106425801        5.09375118919296        4.16843763947032
C            3.97833630148495        5.80535659079577        5.05152731826018
C            3.37965922989197        6.81307148470282        5.95513486763676
C            2.32332164888386        7.63022830801831        5.53664205226674
C            1.57842302298755        8.33968541891727        6.44875632988539
C            1.85039859608177        8.25345215404715        7.80926471122448
C            2.96410522794913        7.51363431580685        8.23762387157453
C            3.71286881989956        6.81351870000668        7.30767565296477
C            3.25272806727456        7.36782048407669        9.67985797265728
O            4.35954666937299        7.05667839199566       10.08266180998237
C            2.11110696419571        7.54797236014041       10.59535997859827
C            2.11576971283294        6.95312377595030       11.85019574176157
C            0.97401837697498        6.91679808983057       12.61363014724301
C           -0.21860567778117        7.49075269399368       12.15565268473487
C           -1.50452797258888        7.17999652081947       12.81890155881655
C           -2.67480007142772        7.07012020970491       12.06211929223386
C           -3.82315220158196        6.54651443574542       12.60301906587426
C           -3.84895968272761        6.09574861761574       13.91940876649083
N           -4.96094255524039        5.32047787500282       14.39388265028075
C           -5.55458525114352        5.35771903001596       15.67518004280424
C           -5.35594774270583        6.20976604216580       16.75819428407768
C           -6.07282909718088        5.99769523104010       17.91120742344589
C           -7.00276652246243        4.94836208321421       18.03320026007300
C           -7.79047997879644        4.69737329160044       19.32858054153081
C           -9.29910209600694        4.79538845603704       19.03448087103931
C           -7.45696934293228        3.29077247133512       19.86066355315944
C           -7.44098327271999        5.72519418034325       20.42211838223893
C           -7.20472372086215        4.11191135121842       16.95150079288285
C           -6.48840282491655        4.31437205419037       15.77337889431226
C           -6.47099367286872        3.59793715018196       14.51925960016626
C           -7.15167923487921        2.46337301882155       14.07776207013547
C           -6.89249641174061        1.94785540932860       12.82096977373388
C           -7.64231641910337        0.69080049221524       12.35218523954776
C           -7.31707698265510       -0.47756529287091       13.30114116944169
C           -9.15756576671392        0.96542154469537       12.36714884094928
C           -7.23951691241885        0.28066229978923       10.92183545781742
C           -5.93123565649567        2.58514166634441       12.01581938955031
C           -5.25171251774349        3.70200921990755       12.43590667158337
C           -5.52612350751606        4.22756631037262       13.69638415480743
C           -2.71140678225017        6.27321744323495       14.70314017921695
C           -1.56369992906737        6.80732264734096       14.16523999808007
C           -0.18489858728884        8.17970603175085       10.94385602423875
C            0.95269764066693        8.20625058689929       10.15400794584565
C            0.90768477284748        8.80506452720224        8.80185033304195
O            0.09544567375471        9.66481369253212        8.51039693922784
C            5.30930496389064        5.40262481889922        5.18520220588461
C            5.78290781360363        4.30028066458242        4.51324252719655
H            1.95999275527586       -1.23394113755374       -2.45413145631334
H            2.03128962962468        0.40944485772829       -1.82858287134851
H            1.77040376780699       -0.93890686143481       -0.72610215978267
H            3.82500871718078       -2.85050534800498       -2.07916487206592
H            3.62818170054453       -2.65879845630889       -0.34286531095815
H            5.21487673302802       -2.42475288688206       -1.08993357825386
H            4.28342255461403       -0.88639349590217       -3.55348417538236
H            5.64199821327125       -0.36617352844644       -2.55684014650365
H            4.32707192805653        0.75125483493110       -2.91062137341013
H            3.57944114984191        1.90428807908989       -1.10394549882627
H            4.19319884465496        3.33528332358111        0.79149393157866
H            5.05520035195959       -1.53927135457534        0.95395316549344
H            6.06846019157544       -2.10001068732600        3.29288693029939
H            5.33358596227520       -3.65691788080063        4.84996542449274
H            4.90129811437416       -2.98483912308314        6.41938255778114
H            5.92820725513331       -4.41510913653307        6.32376426687495
H            7.73409844849901       -3.44199847947001        3.98333807553458
H            8.35788050214709       -4.17988209138846        5.45360925879122
H            8.94398498051259       -2.59657972125989        4.94499292405319
H            6.69135103250534       -1.93110932922897        7.90016413731521
H            8.34295766197891       -1.73873158676088        7.29431561760225
H            7.72887465393603       -3.33512552321166        7.70252231856928
H            6.96240566473491       -0.00140985968567        6.90693101661008
H            6.29895702462610        2.11093382538915        5.88088363836129
H            2.97676500279377        3.40828606602958        2.88159608554800
H            2.12844024561026        5.37587823366181        4.06806484316318
H            2.06578888168838        7.66055172050724        4.49192187315170
H            0.73060627744261        8.92000246782337        6.12756151744194
H            4.50670147977699        6.18060578125486        7.66087597148960
H            3.01121502160135        6.45655924879443       12.18256255976041
H            0.97599485435664        6.37126376592157       13.54081772404868
H           -2.65799035777853        7.33675484323999       11.02002053576794
H           -4.70943216945640        6.44285133576127       12.00122837531527
H           -4.65340489282289        7.01977925615095       16.67779388423092
H           -5.91154923108531        6.65825020384777       18.74404122424186
H           -9.61035241439980        4.04793357695582       18.30625945514273
H           -9.55008947937952        5.77729957016086       18.63475211298405
H           -9.88366213553971        4.64013334301602       19.94067351795332
H           -7.73675623273743        2.51950646547520       19.14456393779492
H           -7.98779762654836        3.08949176029268       20.79056752375990
H           -6.38898757319738        3.19596379449506       20.05416897457644
H           -7.67634147047257        6.73833430789477       20.09802360882918
H           -6.38357195067481        5.67909841141318       20.68039298942406
H           -8.00987297322317        5.53000592716540       21.33068948540379
H           -7.90420881108915        3.29884052510943       17.00730766863929
H           -7.86622873932126        1.99371577049847       14.72757991025081
H           -7.63294422954370       -0.25946393933157       14.32021254114912
H           -6.24533236159990       -0.67287047007238       13.31732757257326
H           -7.82142745965486       -1.38966178137269       12.98368027876976
H           -9.50732985449492        1.20496387403034       13.37014184351526
H           -9.71436999889180        0.09584370681525       12.01951464261342
H           -9.40258157205008        1.80477592187545       11.71720421264114
H           -6.17729350672909        0.04534112813506       10.86475101960210
H           -7.45862019202538        1.07525472048241       10.20937597282087
H           -7.78883671644220       -0.60551371945309       10.60531612130581
H           -5.71152578075865        2.18788751693228       11.04116819376723
H           -4.50310818020516        4.16075586692008       11.81597613983542
H           -2.72344985617934        5.92653520204493       15.72158853937306
H           -0.68573288971482        6.90713548206661       14.77931089017929
H           -1.07430675544192        8.65206479594133       10.56885451360142
H            5.95743004293035        5.94689147788776        5.85036757712959
H            6.80372633055420        3.98381407271951        4.63898551229496
