36
 energy: -7.172631468816 gnorm: 0.000861096183 xtb: 6.5.0 (97a52f5)
O            1.26732816278713       -0.84924633535540        0.48991860458927
N            2.26753085428729       -0.19942880963620        0.15652032441588
O            2.68557666131693       -0.16639251587258       -1.00879902893533
C            2.98246019604805        0.55966438140788        1.17949727319601
C            4.09786894252509        1.30356587496187        0.84452780357090
C            4.76878823292060        2.02542892200140        1.80193277419251
C            4.33842072949435        2.02650796018086        3.13101728835644
N            5.00047152902501        2.77000895673122        4.14319233244560
C            6.02994461439535        3.57424786326805        3.93419421385942
C            6.67653068577951        4.30496459583807        4.94159135719391
C            6.23040867799310        4.19432039093805        6.24518797578382
O            5.17132038906865        3.40653236853237        6.55127475108682
B            4.42497720208162        2.61709589430122        5.56424505012108
F            4.49064771296508        1.27955558928467        5.90101137452298
F            3.11448782552075        3.05149358594632        5.53521572352065
C            6.86639920825106        4.92345870808188        7.34217677462015
C            6.17261717375910        5.08903782941043        8.53790797976740
C            6.73569568597952        5.76706866312043        9.59346716711178
C            8.00990937214286        6.28828621333102        9.47830217772526
C            8.71885054947518        6.12074100751535        8.30785146168546
C            8.16358805974359        5.43976389031868        7.23966306959540
S            9.12063184965722        5.21491167387459        5.77735238111225
C            7.79454380148191        5.23268898969503        4.59062335556859
C            3.21468780895640        1.26504793571358        3.44792096880445
C            2.54682938968693        0.54362272266601        2.49038077918815
H            4.42833011272431        1.30545414687090       -0.18117444292243
H            5.63805819635348        2.58806839034741        1.51486296834827
H            6.38892914764362        3.69281462770918        2.93020290706838
H            5.18190913944504        4.67355274680849        8.61733454519840
H            6.18310403794670        5.89178719646021       10.51079777160279
H            8.45147250055198        6.82106132924588       10.30494488773330
H            9.71765640806606        6.51465598924425        8.21364338971596
H            8.21564381154172        4.97444702048159        3.61601864279916
H            7.41771240623339        6.25527572001421        4.51505714837452
H            2.87172951440408        1.25285297226094        4.46778926491050
H            1.67705940974743       -0.04047649569757        2.74222898407236
