47
 energy: -10.344217768053 gnorm: 0.000754896641 xtb: 6.5.0 (97a52f5)
O            0.91501024756086        1.30193347203015        2.31024564901481
N            1.84687434722414        0.87238621216995        1.61563560794221
O            1.93952062306973        1.10243032719092        0.40159708189762
C            2.88183406359902        0.05799615841132        2.25564665337549
C            2.81358217968227       -0.20818154078870        3.62728217302623
C            3.76880147904557       -0.96769238888293        4.23324955856123
C            4.83282309338820       -1.49127241117946        3.48551090050653
C            4.91454952999180       -1.22989801391366        2.09840731308685
C            5.99825085305090       -1.77266378045031        1.35959700637271
C            6.94411265546144       -2.53415916001098        1.97036567538537
C            6.83430306778387       -2.77517157186119        3.34763560729365
N            5.80984876151775       -2.26318926488338        4.06222823566720
B            5.95376891144961       -2.69642656326105        5.53177657268826
F            4.87255758142651       -3.46699304214284        5.91549937691862
F            6.11172422811264       -1.59278457228268        6.34818537359459
N            7.23730374377185       -3.54326030402137        5.52159639372587
C            7.69219057751333       -3.54115270649335        4.22133182178011
C            8.85872171403195       -4.31053210318042        4.18270090687732
C            9.08770460913803       -4.77284686360546        5.49555317870450
C           10.11502271146437       -5.61130627575271        6.05873176016818
C           11.14947256975360       -6.12337939923951        5.26922184422938
C           12.11805756374054       -6.92069316709583        5.81671668273563
C           12.07906909003847       -7.22778321562153        7.16737741113261
C           11.07426143010693       -6.73713909510104        7.96329726828057
C           10.06441363321368       -5.91851150822377        7.44444565629092
C            8.98342183152839       -5.38942389924978        8.28807420374748
C            8.88583731604646       -5.66138309738831        9.65776016437296
C            7.86046574884224       -5.15145046255450       10.41675780639172
C            6.88704670118994       -4.34731235933511        9.84202442413737
C            6.94680759604170       -4.05842408880313        8.50630346294149
C            7.98173258754587       -4.56743717721639        7.71992373138340
C            8.05317198225027       -4.27501342378956        6.32595220405555
C            3.91213814694839       -0.44266960082869        1.50750288907701
H            1.99089444528469        0.19777837452176        4.19116291296309
H            3.72761497975000       -1.18143687242514        5.28714743569008
H            6.06023652117145       -1.57350855436946        0.30386792477344
H            7.76859662432188       -2.95172976710015        1.41968060615667
H            9.45648585358691       -4.51356498962454        3.31257619421194
H           11.17778554756251       -5.88301850688942        4.22098717908482
H           12.91079718968064       -7.30975347192340        5.19880383103054
H           12.84351902136273       -7.85668967068297        7.59380128467740
H           11.07097262342771       -6.99370598773942        9.00661011075498
H            9.62260657681046       -6.28144961717247       10.13434520892630
H            7.80979494016499       -5.37793506525595       11.46930230010582
H            6.08648636309117       -3.95267911164128       10.44601100495787
H            6.20248930029231       -3.43787093028384        8.03711301583653
H            3.94765883796266       -0.22785094206011        0.45463639546583
