15
 energy: -2.997893961394 gnorm: 0.000560778081 xtb: 6.5.0 (97a52f5)
O            1.27776930613858       -0.72582725119300       -0.29682645194268
N            2.30502188992217       -0.08379087474921       -0.04753302891587
O            2.76052337790827        0.77390316962052       -0.81335159808833
C            3.01209996050946       -0.34805226357522        1.20603246316787
C            2.58117839658810       -1.35209059517298        2.05203385072162
C            3.24652081032113       -1.59170250581299        3.23573703338555
C            4.34201748114510       -0.83441428968068        3.58125025430895
C            4.79343845518687        0.18630119763980        2.74040057801116
O            5.88225592900034        0.97841251861221        3.04384171178697
C            4.10705381133700        0.41170137626021        1.54753560731041
H            1.71928744915708       -1.93504682775109        1.77221714290331
H            2.90394127210745       -2.37357931380451        3.89489855775029
H            4.85689898067487       -1.02302658438095        4.50628179342065
H            6.26915016623013        0.73110355048772        3.90112471490417
H            4.44017271377345        1.19432869350015        0.88972737127594
