11
 energy: -2.301095581674 gnorm: 0.000898594346 xtb: 6.5.0 (97a52f5)
O            1.16899619984203       -0.51766377968178       -0.16378376656002
N            2.24149395095627        0.06738772847683        0.00614397863289
O            2.75471594566886        0.78162545610075       -0.85765566607922
C            2.91694300395052       -0.09947743039830        1.27451833403818
C            2.57787380173391       -0.88355446243026        2.34632950499526
C            3.48162800628088       -0.80750528623629        3.44838579513468
C            4.54500518663373        0.03495092258216        3.26670733962382
S            4.31335569522643        0.64499743190435        1.74796681979676
H            1.68948318452871       -1.51086482516668        2.34420913571412
H            3.33433859322606       -1.37625684320434        4.36408462805102
H            5.36607643195264        0.27805108805356        3.93185389665251
