22
 energy: -5.000921971361 gnorm: 0.000887699811 xtb: 6.5.0 (97a52f5)
O            0.98748643464607        0.00178824570094       -0.06184011818370
C            2.20289608806917        0.04284416978782       -0.06420350184493
N            2.88625849251315        1.24306218537196       -0.06441218692911
C            4.26477440459895        1.34910792245047       -0.07272948661126
O            4.81239018252129        2.43512189199868       -0.07750891271182
C            5.04552931511754        0.10776861091016       -0.07570829533699
N            6.35331816564499        0.19729464203187       -0.08049645654927
C            6.99512592409736       -0.98680815152056       -0.08265292138314
C            8.40331743654319       -1.00267179400709       -0.08790590799491
C            9.09557887292083       -2.17693017720618       -0.09015627937582
C            8.41416957233392       -3.39411836522412       -0.08730642655319
C            7.05166726297449       -3.41729899964244       -0.08227245907244
C            6.30200336319708       -2.22308043661148       -0.07982472420191
N            4.96084656253380       -2.29535715850390       -0.07494426182759
C            4.35291851278275       -1.12864933816830       -0.07293234167818
N            2.96427885184968       -1.10949227633487       -0.06780283152730
H            2.35181335584081        2.09191683078387       -0.06288397029553
H            8.92256395662096       -0.05926610944707       -0.09011281897324
H           10.17394645367089       -2.16804680180407       -0.09413945471014
H            8.96985959561222       -4.31822837331083       -0.08910333670582
H            6.51747613096783       -4.35222390389429       -0.08004614031317
H            2.48616106494298       -1.99562261336054       -0.06693716722055
