60
 energy: -11.316180649128 gnorm: 0.000500939286 xtb: 6.5.0 (97a52f5)
C            0.98211194938310        0.34037694739045        0.03659833881783
C            2.44680604325824        0.13923235830826        0.46740487586198
C            3.27980186251790        1.31877818103459       -0.07108423204572
C            2.53975956854537        0.14478474793572        2.00503913322985
C            2.94927701200398       -1.20975380373730       -0.07072971694540
C            3.99208509528219       -1.30112211936351       -1.01082894726718
C            4.42698815509783       -2.50544939231949       -1.50877796181318
C            3.82667564654754       -3.68526711732495       -1.06824650283713
C            2.77308814100690       -3.60557449085747       -0.14199006446411
C            2.34121265818229       -2.37455871964971        0.35306784004129
C            2.28527344206495       -4.94260043622076        0.07806665671193
C            1.23935724026026       -5.43594440279070        0.85908098592046
C            0.95316591988489       -6.78741742939602        0.85476758777233
C           -0.20958116576714       -7.31003652361879        1.71348852145220
C            0.03738875880939       -6.94126473093284        3.18866201680087
C           -1.52322719698403       -6.66609878873941        1.23243211506206
C           -0.35348654744065       -8.84128530064119        1.61575887635304
C            1.73084002359861       -7.63816144624351        0.04646193646912
C            2.75969494960365       -7.16635925090751       -0.72937410479463
C            3.05417080355420       -5.80326465222421       -0.71880797321980
N            4.02686829248223       -5.04557223170408       -1.41161116932489
C            4.93811760017970       -5.59653146800701       -2.35672674933743
C            6.05076421031924       -5.00590192232973       -2.88398040220726
C            6.69784264118670       -5.77879457411564       -3.88362342934849
C            6.10714538044133       -6.98693621806180       -4.12592592489259
C            6.52969075045586       -7.94900615211957       -5.11404105179247
C            5.93908104718423       -9.15825985692611       -5.34783189312067
C            6.55634144583167       -9.90608278877362       -6.38804713185590
C            7.61298900005955       -9.27538188248250       -6.94790201217671
S            7.88130690243663       -7.73553845123956       -6.20472243667752
S            4.75600990268869       -7.18658154025636       -3.03489088206387
H            0.59858101971627        1.29646334550006        0.39172165955955
H            0.34147373656528       -0.44507187458733        0.43537895452833
H            0.89479460449825        0.32371019984297       -1.04944235181998
H            2.91927585229493        2.26325751859901        0.33576884452005
H            3.21387379865785        1.38355618214440       -1.15671745821377
H            4.32818906445423        1.21805622619156        0.20830210631524
H            2.20891583318100        1.10007420230401        2.41168128294466
H            3.56653089454429       -0.02254692141756        2.32904854276185
H            1.91868108805332       -0.63484465222835        2.44375155381361
H            4.46302194511108       -0.40053949955828       -1.36227669468484
H            5.19856956424547       -2.53582616954694       -2.25417210184085
H            1.52555629370874       -2.34647552760720        1.05135409103128
H            0.65967388720039       -4.75297036745637        1.45169645679605
H            0.08769855008403       -5.86198590628693        3.32540610202893
H            0.97644272802685       -7.36775097623873        3.54011249855576
H           -0.76332006722560       -7.31905471858458        3.82392926040521
H           -1.49054470869134       -5.58167486168491        1.32881652111108
H           -2.37080408981497       -7.02701485727757        1.81441590096039
H           -1.70720373083181       -6.90334755064843        0.18494849066127
H            0.55302735374127       -9.34252159230892        1.95384930900529
H           -0.56175761649267       -9.15183335414826        0.59236236143144
H           -1.17582890028763       -9.19227929443068        2.23882852542789
H            1.51673341223881       -8.69183450412416        0.03110752968772
H            3.33861419860215       -7.83463719838969       -1.33706092281735
H            6.41953725855540       -4.04504475278777       -2.56677829590070
H            7.56974240253719       -5.44082731273158       -4.42202723145739
H            5.08138525448678       -9.50455442907199       -4.79244207315945
H            6.21146517914733      -10.88223921825037       -6.69687122782581
H            8.21681566096047       -9.66233867886148       -7.74713793209767
