31
 energy: -5.669062011713 gnorm: 0.000183912414 xtb: 6.5.0 (97a52f5)
O            1.13300721449213       -0.17385602404917       -0.62384363228818
C            2.32201142164667       -0.04847010723157       -0.38597832362948
N            2.92079933648878        1.20315750074604       -0.37126851028808
C            4.26381906200065        1.42747580045023       -0.10725607580823
O            4.74840292018837        2.54804929896703       -0.10733837685056
C            5.05160564344681        0.25115623089646        0.17000413029921
S            6.74562296025475        0.14394240403173        0.54965278835727
C            6.67391900659565       -1.57264670698648        0.70134106614962
C            5.42718428822380       -2.04054981219768        0.47428477768461
C            5.07714672777646       -3.50575981165826        0.52054764223672
C            5.25914277861646       -4.21774696534507       -0.83710782377472
C            5.71144240581269       -5.63320378848135       -0.44636519116570
O            4.63833435152693       -6.55838031401094       -0.39956738629242
C            6.36877221613979       -5.45210257327652        0.95000444168267
C            7.89592909327567       -5.46038183376927        0.88031155142129
O            8.41235219675790       -6.64261707891167        0.31105511993189
O            5.87219590485970       -4.21316453714306        1.50353760922345
C            4.48834035874423       -0.99617523958463        0.16133230168493
N            3.12175487642711       -1.14568613481845       -0.12180765792491
H            2.34427712143438        2.00161355261526       -0.56333536457216
H            7.51342979310767       -2.18858660135314        0.95762720494152
H            4.04118012856100       -3.61014731796121        0.87289520511053
H            6.01452339433260       -3.70068586128273       -1.43645718115525
H            4.33435070060069       -4.25092265596993       -1.42072753785509
H            6.44236931661661       -6.04313811522190       -1.16254210403022
H            3.96388525384936       -6.26848197779738        0.24109547885214
H            6.01846953616843       -6.25178183246119        1.61760664783647
H            8.33886918218129       -5.30504850323404        1.87209250271514
H            8.23666684895066       -4.63269708760987        0.24935639389857
H            8.18848025251903       -7.42421361894275        0.84842979504799
H            2.69375570840275       -2.05951028840826       -0.12860949143615
