32
 energy: -5.800289279576 gnorm: 0.000319623763 xtb: 6.5.0 (97a52f5)
O            1.11729764363233       -0.50158861302064       -0.17287087191187
C            2.31706595012903       -0.33824696064188       -0.01844433003163
N            3.14817856062652       -1.34220568864659        0.45103290517704
C            4.51352848947962       -1.21177354376040        0.66316557734943
O            5.16692629810875       -2.17617231103822        1.02153983949113
N            5.09439018258679        0.04316483683505        0.45141965491364
C            6.53100499094972        0.29792679234788        0.64894663352518
O            7.23783195437277        0.24791156592540       -0.59263793143655
C            7.95179299570733       -0.99517249017607       -0.66718897845518
C            7.14086531837824       -2.07124800123757       -1.39231826099674
O            7.87195521259128       -3.25079672399724       -1.63032591145506
C            8.29496217827146       -1.40200725857126        0.79028821995968
O            9.60935080186329       -1.03348778556547        1.13185404506928
C            7.25552202714415       -0.63791843996832        1.65722800977966
O            7.87924032407779        0.11075257377736        2.67637530221822
C            4.31227724543216        1.07765473293507       -0.11486956295421
C            4.77989496308869        2.35936920532481       -0.54444328573227
C            3.80844685934836        3.14948679200272       -1.04442095815230
S            2.27835542099951        2.35097938571389       -1.00971347829529
C            2.97197999330220        0.90616431057530       -0.32936286122810
H            2.73357461655293       -2.23600345852269        0.64202341333118
H            6.63887746971136        1.32235250116574        1.03006495455890
H            8.88133364624438       -0.78655718570457       -1.21617753550926
H            6.73711191536828       -1.69162071356282       -2.33907487946070
H            6.29055749529523       -2.36424079782830       -0.76725088189143
H            8.63404884412391       -3.08655123020171       -2.21501184972935
H            8.21993790367692       -2.49312186342562        0.91811187169901
H            9.69174177303131       -0.06383247830784        1.10229955102585
H            6.52299754576715       -1.30959192233285        2.12622682425311
H            8.44449552924605       -0.46386744791419        3.22236075356706
H            5.81864355508150        2.64946111763670       -0.50335337884865
H            3.94978229581076        4.14411110018139       -1.42427259982694
