42
 energy: -8.004480855409 gnorm: 0.000583934145 xtb: 6.5.0 (97a52f5)
O            1.25924247895061       -0.05080775853272        1.35519199285167
C            2.36748810420456       -0.01687774654102        0.84268887964409
N            3.15658481937693        1.12034856791896        0.91557288733089
C            4.42215095261936        1.23342699373896        0.37033798210812
O            5.05749707967188        2.27003285626237        0.43703936266771
N            4.92974600783656        0.09355241983521       -0.26919703602562
C            6.29314426225499        0.11530611741355       -0.80152263354135
O            6.43345703161625       -0.73880115465576       -1.95828923283951
C            7.51347375201365       -1.67734589593562       -1.76020628016790
C            7.00511212110379       -3.09837654222075       -1.51181846073398
O            8.04655933434935       -4.01920585376097       -1.27627178020575
C            8.35709659529064       -1.14235916104340       -0.57701601888416
O            9.41214748890616       -0.31842196654666       -1.02990410460407
C            7.33849203601877       -0.33022218202574        0.25498030792668
O            7.95201435653624        0.74477288988521        0.94096361158936
C            4.17568662870817       -1.03204470766643       -0.40381849267124
C            2.92392533612796       -1.15465400068860        0.12025529367347
C            2.18858549754824       -2.38290638313916       -0.05158855139025
C            0.94492148172993       -2.65310402545524        0.42513234847109
C            0.46692508131546       -3.96727624896382        0.10343704428370
C           -0.76569583702626       -4.53925597435315        0.45731218208475
C           -1.04903932704915       -5.82011602221862        0.05854836085864
C           -0.12955799480854       -6.55320161903362       -0.69046244864816
C            1.08162035257185       -6.00733609041500       -1.04329167649494
C            1.38089844590412       -4.71336779700387       -0.64525671149575
S            2.81860611092588       -3.76332286865815       -0.93394638917368
H            2.77712215078779        1.91854980030665        1.39084526796494
H            6.51065409030587        1.14003396879514       -1.12746454083035
H            8.11937058922428       -1.65422379992745       -2.67670853987427
H            6.38471291309623       -3.44906182798613       -2.34562980703410
H            6.37318281665577       -3.11063548521066       -0.61882118540864
H            8.62924112576713       -4.09912408297670       -2.05442656345941
H            8.80257222383594       -1.96259315762638        0.00593391255503
H            9.09847282503087        0.26359026335481       -1.74876363428490
H            6.83962046320147       -0.95569499680421        1.01002575905483
H            8.73749768942285        1.05374923693150        0.44528742159304
H            4.58898263872142       -1.84198032069888       -0.97387725865117
H            0.37530859659977       -1.94057828542926        0.99767446256325
H           -1.47049769732878       -3.96854689197752        1.03629815741856
H           -1.99313955520884       -6.26592157352890        0.32526918302859
H           -0.37170634513519       -7.55828783372005       -0.99546008704711
H            1.79862327832058       -6.56482085970436       -1.62061298420207
