30
 energy: -6.274163804784 gnorm: 0.000485102194 xtb: 6.5.0 (97a52f5)
O            1.01611394661236        0.10403399435910       -0.05814070176687
C            2.23835408952518        0.08073518880445       -0.06082912417653
N            2.99165992210185        1.23789587824673       -0.05955050738956
C            4.37279114439119        1.26522937716046       -0.06229467313681
N            5.03748738922260        0.10675874035344       -0.06637823762087
C            4.38060085416898       -1.12774816222470       -0.06847724600330
C            5.07662549780759       -2.33921298351574       -0.07330425733425
C            4.41324051795321       -3.53799082214155       -0.07469286356152
C            3.02646785117117       -3.56774919052448       -0.07144135513514
C            2.31743339183161       -2.39388411308590       -0.06701558535743
C            2.97816368215017       -1.17073203488767       -0.06553129177648
B            6.57290378067699        0.01808307656161       -0.07020279219421
F            6.94878848939223       -0.66502094630238       -1.20971370234011
F            6.95438057835241       -0.67497215230149        1.06143673530154
O            7.20031448551029        1.34121464045595       -0.06573474227227
C            6.49830879463340        2.51089248197114       -0.06192768137042
C            7.19847101347225        3.71791126025878       -0.05940995055935
C            6.53312188379094        4.91713136851053       -0.05605971479077
C            5.15128509342695        4.93723302031012       -0.05510630209636
C            4.44139530001093        3.75900835702244       -0.05729550144654
C            5.08841660278963        2.52397955105621       -0.06055366254797
H            2.45683229076917        2.09407233144826       -0.05589573978683
H            6.15257552222819       -2.31415590898529       -0.07582188424050
H            4.96957694607536       -4.46148976637311       -0.07823396549962
H            2.50755646080927       -4.51278845798001       -0.07244401126154
H            1.23996735107316       -2.39792953065976       -0.06453799912945
H            8.27412843171386        3.68286521451963       -0.06025952648741
H            7.08664246373831        5.84248586667599       -0.05417867963168
H            4.62898032280557        5.88041562830135       -0.05259201746750
H            3.36814590179520        3.80292809296594       -0.05660301892022
