16
 energy: -3.461831121571 gnorm: 0.000848229748 xtb: 6.5.0 (97a52f5)
O            3.13702499876279        0.00520541557459       -0.00053496060381
C            1.91366956260246        0.00317761812394       -0.00209128867328
N            1.08903445658260        1.12165638396729       -0.00303553048294
C           -0.24479783740287        0.70350093477450       -0.00216604791013
C           -1.44331927658672        1.40491382309406        0.00152676241889
C           -2.62258950576654        0.69187506339810        0.00423615157092
C           -2.62021154428281       -0.70091135404263        0.00379297940434
C           -1.43853286388474       -1.40994797617321        0.00067113740874
C           -0.24240094571353       -0.70447991869559       -0.00240069022616
N            1.09283469979745       -1.11808669205561       -0.00274252915991
H            1.40926448656249        2.08263014726783        0.00019200411112
H           -1.43581655799252        2.48013288380860        0.00229393640422
H           -3.56153906859132        1.22025640953962        0.00689303644290
H           -3.55737624860438       -1.23246004985673        0.00617308647374
H           -1.42744465841256       -2.48514253147277        0.00092659744433
H            1.41619030293019       -2.07801015725198        0.00049535537703
