30
 energy: -6.207688242249 gnorm: 0.000396281345 xtb: 6.5.0 (97a52f5)
O           -2.29837337205422        1.63098663733070       -0.44604828714345
C           -1.83205756643079        0.51612731363257       -0.23814688387186
C           -2.71309016709840       -0.62896035601537       -0.07479483814722
C           -4.17320176220919       -0.48138966468939       -0.15816010448176
C           -5.03071144073414       -1.34608547351229        0.52703770236631
C           -6.39413768008226       -1.21816161700159        0.43536992563215
C           -6.96680237046694       -0.21430837473305       -0.34805722007786
O           -8.33490865992379       -0.05460279235514       -0.46617102687212
C           -6.11385865736080        0.65613520939528       -1.02792015519155
C           -4.75236923431423        0.52539666130578       -0.93028740263054
C           -2.14286882265933       -1.85047579650278        0.15178555364641
O           -0.82112885044645       -2.10986321936348        0.25545830617318
C            0.04698177875637       -1.03913691184957        0.11273102398076
C            1.41006199823992       -1.29165539482583        0.22254920888468
C            2.35018488048294       -0.27844635444570        0.09331117327665
O            3.70568876883925       -0.50974943384072        0.20383227110467
C            1.89912875855254        1.01661573211284       -0.15654827963849
C            0.54991161429631        1.31895291051229       -0.27595181283579
O            0.15788050328096        2.61197858428712       -0.52452200176729
C           -0.40444318677152        0.27370504950784       -0.13695942932358
H           -4.61348664396381       -2.11113540589366        1.15833206014874
H           -7.03473098494735       -1.89325298886200        0.97361451762029
H           -8.80807699576713       -0.72614395097445        0.05730150531387
H           -6.55186498882902        1.43526984782514       -1.62625935507259
H           -4.10654473306464        1.21595287321721       -1.44500984825425
H           -2.76913162513919       -2.72513144815504        0.24433692089398
H            1.72680543484741       -2.29885288535776        0.41273487938917
H            3.88271509347179       -1.45070352573203        0.38235026596155
H            2.63329886193379        1.79249431570150       -0.25553026657176
H            0.92781004956197        3.20769045928189       -0.59450840251276
