103
 energy: -21.313779200895 gnorm: 0.000830006759 xtb: 6.5.0 (97a52f5)
C            0.97066587898126       -0.24230238197847       -0.17042399644154
C            2.50663491859931       -0.14167648760072       -0.21936534698080
C            3.06653749380383       -0.05409602776661        1.21279949142169
C            3.05615897650354       -1.42334871315780       -0.87631588272572
C            2.90901307129374        1.11812725912634       -1.00272935783455
C            2.50066013797859        2.37953139669137       -0.53142373265987
C            2.82083169048459        3.54514388552553       -1.18354927069168
C            3.57654728524577        3.47225494432157       -2.34919304271538
C            3.99141388627720        2.22545137860809       -2.84059619963385
C            3.65673722934108        1.05189619345236       -2.16484664715334
C            4.72717796484673        2.46873288942105       -4.06058036596695
C            5.34038799534857        1.61371614631075       -4.97576852170211
C            5.96639933976826        2.13426989674412       -6.09344320564607
C            6.63594865003671        1.17638869637639       -7.09147343208673
C            7.73326399004177        0.37321671269527       -6.36827853808245
C            5.57726394678061        0.21274037682022       -7.65948608167274
C            7.28435216667884        1.93260046549847       -8.26753351567109
C            5.96602608147669        3.52948835240764       -6.28238726421307
C            5.36493841833189        4.38638317661300       -5.39310342291051
C            4.73835648120530        3.85524471972783       -4.27026995216139
N            4.02855363292414        4.48358945668287       -3.22419807218667
C            3.74864639246731        5.89016084182517       -3.11944477624973
C            4.37684545660517        6.68292842184204       -2.16879497019035
C            4.12480439747423        8.04165109062986       -2.08187801614139
C            3.22663758465316        8.68369347246339       -2.92935537993963
C            2.93122470842314       10.12152623177490       -2.74157477011176
N            1.65692374588776       10.48019732724934       -2.67765056568076
C            1.45675916562657       11.78062158218829       -2.54171058642675
C            0.06035702538674       12.24803781993412       -2.50894723804573
C           -0.23423355853772       13.60615195835078       -2.43423564992210
C           -1.54070399237208       14.04180230983518       -2.41301789234332
C           -2.57527311612611       13.12806921491042       -2.46614386430844
C           -2.29935791104955       11.77674962553654       -2.54084645779685
C           -0.99338236676608       11.34030427196835       -2.56186273358145
N            2.40854417846994       12.69574885164703       -2.44248660848983
C            3.64269995856025       12.21698273906248       -2.48329767316974
C            4.74654324329813       13.18690852320084       -2.37419239671196
C            6.07221325923599       12.76140509967327       -2.38556589553228
C            7.10322063162830       13.66937994044244       -2.28519243822813
C            6.82806452449673       15.01842289802394       -2.17270716245096
C            5.51808996354973       15.45701265561055       -2.16210575916632
C            4.48626756412870       14.55002037782161       -2.26223762798760
N            3.96606720352131       10.94093226858293       -2.61748070781877
C            2.59589915057460        7.90133668768248       -3.92676261042172
C            2.84795180494548        6.52131720715424       -3.99920218168698
C            2.06281025071447        5.98936469100341       -5.08069270193788
C            1.90659235136131        4.69646553998195       -5.58167316432954
C            1.08746022616287        4.50001870042586       -6.66544611221931
C            0.42026297684733        5.57463551673683       -7.26145912887265
C            0.56010383253182        6.85233528336078       -6.77614863115004
C            1.38203710333283        7.06558245094662       -5.66921323228962
N            1.71683819527731        8.24743458215979       -4.97529203921007
C            1.32939142212253        9.56565271092754       -5.40720698128141
C            2.29182403112775       10.52056152559138       -5.71537955764219
C            1.92079742293793       11.78308064227657       -6.12145774676608
C            0.58327268716952       12.10761304474066       -6.23607460677758
C           -0.38246154620213       11.16349088955071       -5.94691956915660
C           -0.01334607668519        9.90141615790911       -5.53700597547434
H            0.65595856293375       -1.13949708265676        0.36170036912823
H            0.55568146363112       -0.28399947698214       -1.17695139483409
H            0.53331444953743        0.61626660365828        0.33696368387831
H            2.81826549825443       -0.94864341704034        1.78316893663307
H            2.65947749288100        0.80343988102153        1.74639482576394
H            4.15138093749735        0.04524304919294        1.19637686231846
H            2.76599662394947       -2.30503505571887       -0.30558261109870
H            4.14452715305784       -1.40421367812001       -0.92224159414509
H            2.66772789262577       -1.54348906673682       -1.88710059798338
H            1.91532883721935        2.43141302576321        0.36989436635807
H            2.49964986895377        4.50344883944674       -0.81591587461541
H            3.98657132710180        0.11223324171310       -2.56513274973166
H            5.31660981500481        0.55417697410582       -4.80171133696124
H            7.31780416118815       -0.22611290394523       -5.55951777986033
H            8.48021799668317        1.04128829997140       -5.94071694366617
H            8.23946153646069       -0.30246364134231       -7.05699762495308
H            5.12619261840594       -0.38890044301838       -6.87179250628414
H            6.01983592716395       -0.46780256601772       -8.38621542354624
H            4.78081396042934        0.76610033083650       -8.15603974659345
H            8.05377448354562        2.61914720557133       -7.91578433244996
H            6.54093662305390        2.49974764205335       -8.82672687688869
H            7.75643581791755        1.23664268567029       -8.96043189825174
H            6.44637553523046        3.94506700435662       -7.14980858884287
H            5.36080660673667        5.45035791441468       -5.55030202472765
H            5.07482025798849        6.21784191330424       -1.49483076134471
H            4.61822142420379        8.62805479367161       -1.32637909878871
H            0.57722799387572       14.31143524632805       -2.39577878840797
H           -1.75558939986978       15.09636925310361       -2.35489811260249
H           -3.59740604508042       13.46959920992007       -2.44937068050812
H           -3.10614554718847       11.06338683315439       -2.58429906487136
H           -0.76916346880574       10.29024719286403       -2.62778320583765
H            6.27873261790500       11.70929193959242       -2.47445640915765
H            8.12526915609634       13.32648730639210       -2.29402081826447
H            7.63515055766875       15.72838834621708       -2.09351943117576
H            5.30273145568059       16.50972568577523       -2.07620410929000
H            3.46363915844281       14.88469945555448       -2.25872309828191
H            2.43208922866227        3.88225546014847       -5.11881318442177
H            0.96093787241531        3.50730700301975       -7.06523723182230
H           -0.21298488784671        5.39678144995262       -8.11515355912305
H            0.05355343072368        7.68342093012714       -7.23306077370868
H            3.33102597694592       10.26069050411896       -5.61425825160890
H            2.67518580264626       12.52047452969673       -6.34230601617332
H            0.29309502332781       13.09803164127259       -6.54693525189944
H           -1.42637227511116       11.41719652851933       -6.03285155921576
H           -0.75902464888203        9.16414392150791       -5.29550996494491
