47
 energy: -10.665516291499 gnorm: 0.000757451215 xtb: 6.5.0 (97a52f5)
O            0.90712558146803       -0.04185916749237       -0.04915189861684
C            2.12758658774458       -0.00169620960911       -0.03569970631421
C            2.86010242559101        1.24565404366627       -0.03144058297801
C            2.19159828167130        2.46224833025843       -0.05569484502528
C            2.87925696366121        3.66246325086807       -0.05822940702189
C            2.19108586585587        4.88712796937203       -0.09105454022889
C            1.59889811460192        5.95594825601573       -0.12723526096125
C            0.92304552515758        7.18898956385528       -0.16720421214380
C           -0.44470787819873        7.24119262932288       -0.43211467742233
C           -1.10694682639027        8.44677023077021       -0.47187168540621
C           -0.41423453354853        9.62529104277479       -0.24754040896028
Cl          -1.24405879281228       11.13758644245689       -0.29882806214290
C            0.94510754800053        9.58937932839160        0.01689785760295
C            1.60654164010541        8.38336998937421        0.05639370019012
C            4.27995338505402        3.62831670315071       -0.03202633476616
C            4.95420809626624        2.43961605519617       -0.00662793136054
C            4.26988893792329        1.21092770804630       -0.00731342822100
N            4.98784956079479        0.05807951343406        0.01039061268729
C            4.30970532509884       -1.08295678283090       -0.00270325715031
C            5.02790041676817       -2.30142414913859        0.00241902054118
C            4.38404089387503       -3.49532232612113       -0.01911837417949
C            2.97151326668401       -3.55823400517275       -0.04598886429451
C            2.30547202748941       -4.79571538603251       -0.07471785951317
C            1.74022603322729       -5.87896337909779       -0.10459559008905
C            1.10229406523092       -7.13260250236414       -0.13682754475481
C            1.82326518468815       -8.30217801496420        0.09914917847392
C            1.20185648232979       -9.52949392837272        0.06674015720645
C           -0.15448067524587       -9.61186230068554       -0.20249536594236
Cl          -0.93451522150641      -11.15083576597682       -0.24353530540520
C           -0.88423744242776       -8.45832515764716       -0.43900954778388
C           -0.26181330447702       -7.23141827418984       -0.40651976637979
C            2.27775760874164       -2.38123331003324       -0.04674667702808
N            2.91585140464956       -1.16731239175795       -0.02606582052940
H            1.11654545690775        2.46379570938509       -0.07534926821001
H           -0.97754951103856        6.32208606153965       -0.60592015771547
H           -2.16299042331622        8.49191291492973       -0.67672681880055
H            1.46889749321942       10.51420088600418        0.18903021631685
H            2.66277460255937        8.34925316801747        0.26145460715115
H            4.82008113339063        4.55943079562514       -0.03410116045447
H            6.02969044438574        2.42319848895331        0.01192403906244
H            6.10262676146900       -2.25924573876685        0.02084246832134
H            4.94196599587080       -4.41597724830975       -0.01804187572219
H            2.87711361498212       -8.23187162046180        0.30733928565418
H            1.75513006930787      -10.43537923177708        0.24730206967573
H           -1.93757873173291       -8.53956155003469       -0.64664547017596
H           -0.82377737070203       -6.33164168508654       -0.58955327590462
H            1.20270391664906       -2.38357895551192       -0.06671823125738
