47
 energy: -7.171484759983 gnorm: 0.003733121791 xtb: 6.5.0 (97a52f5)
O           -1.05006595453585        0.75216364364515       -1.81603871528177
C            0.09473125736298        1.09735792998115       -1.85252165231080
C            0.66554047686937        2.32564548026292       -1.63051695789319
C            0.00065274062108        3.41792508755430       -1.30718769700772
C            0.53415763537543        4.59769198577250       -1.08120525671107
C           -0.06155199257798        5.77132105052971       -0.72828892478873
C           -0.62303542898778        6.81164733770260       -0.41624305471790
C           -1.25599467232631        7.96855431128871       -0.06743823520123
C           -2.15862117484086        8.18637385092928        0.87081478060610
C           -2.74224129810723        9.32334009244121        1.18371467518144
C           -2.57566944297356       10.52002636391439        0.64600926699051
C           -1.73504881844153       10.79565659430059       -0.39615120762239
C            7.00234958356576        9.69938843639318        2.46007775078100
C            6.27381978371783        3.62731788504501       -1.24079057975466
C            8.41274769359783       -0.24527196704118        0.57082372956906
C            7.26443503798600       -0.86560907536804        0.60217615275932
N            7.00840146382895       -2.15382683512790        0.56182332687727
C            5.88205216115098       -2.67884594788833        0.60390463522247
C            5.95757335208374       -3.96182770871462        0.53953989131814
C            4.88986285080032       -4.82536574816395        0.53460717964467
C            3.62958892259756       -4.41229004611145        0.58196740030839
C            2.52495373640901       -5.17742833639610        0.57875568223827
C            2.38444929400212       -6.53171319185564        0.52246979032244
C            2.29337552854380       -7.74920643761788        0.47032376158112
C            2.22461520699371       -9.10897642711657        0.40843800860159
C            1.37346020074714      -10.02012460789886       -0.11284780572146
C            0.17350348971239       -9.76571824151131       -0.74668464126427
C           -0.43012314886565       -8.55824070850314       -0.86975069089020
C           -0.55565953574597       -7.63592535596967        0.13553130323150
C            2.77107232411431       -1.06353182075073        2.42633332628849
N            3.74625950069857       -0.98973736418735        1.70376073967102
H           -1.97480664859778        4.06817752647340        2.88196928402709
H           -9.60754178564815        5.05636986062497       -3.93987416609153
H           -8.07132445139723        8.71390882801876       -2.08443235613027
H           -2.35040827071604       16.06898606379056       -0.63571018932497
H            5.37891326424031       13.40182331328284        0.18073517996798
H            7.50909829298974        9.73811567518820        3.34913586048106
H            7.00276269678226        3.31884636922680       -1.88903617685539
H            9.34356072711535       -0.72763036144920        0.50242122342355
H           11.31095520459727       -7.41088206885039       -0.02250406362276
H            5.09218741167844       -5.88287170332688        0.48689068753349
H            6.99795078393384      -11.54155237454026        1.87444420876086
H            1.69075216495431      -11.04952057690454       -0.04651566850890
H           -0.34202507820330      -10.60266491168700       -1.19377051816046
H           -4.97277502278884       -9.22881717892017       -0.95667315815097
H           -1.88953556453402       -5.62889342300502       -0.55302171047248
H           -3.03766445596751        0.58968469889771       -1.53505442125026
