28
 energy: -5.900638504089 gnorm: 0.000802325012 xtb: 6.5.0 (97a52f5)
O            0.83453943793253       -0.01846537376919       -0.06824770081074
C            2.05380312430020       -0.03200644477677       -0.07023031483960
C            2.84265513385218        1.18662733190846       -0.07247882732461
C            2.22796284043021        2.42534413085113       -0.07248951851594
C            2.98456085124325        3.58185268084564       -0.07449381948067
Cl           2.20556171485451        5.10636952312363       -0.07449887877716
C            4.37814843550345        3.50720430440659       -0.07654857859200
C            4.99984213196709        2.29148219076581       -0.07662114292859
C            4.25831834248192        1.09227026726665       -0.07462240286426
N            4.92334314691247       -0.08777946439385       -0.07488091423964
C            4.15335509896062       -1.17282624392386       -0.07287189185638
N            2.80563157125746       -1.19131751679981       -0.07055384943162
B            2.32489273151197       -2.63973586615361       -0.06838466802932
F            1.61109612809927       -2.92265412108531       -1.21294895038043
F            1.61658710709823       -2.92080271610742        1.08006061187241
N            3.63591020865204       -3.43007745197073       -0.07074721818323
C            3.85288437266759       -4.75287351753397       -0.07051836229384
C            5.14372913869575       -5.22382444922310       -0.07258670228388
C            6.20484334810279       -4.33189324286098       -0.07490147909193
C            5.96998383601839       -2.97669123629111       -0.07516516546772
C            4.65756401562529       -2.53641846621176       -0.07299678250120
H            1.15286738018076        2.48495854427475       -0.07088819442427
H            4.94868289141274        4.42122980016825       -0.07806085210552
H            6.07441905968885        2.22603399490101       -0.07819875813514
H            3.00163121722184       -5.41320216915613       -0.06869315446008
H            5.33067501038824       -6.28569137582297       -0.07240070491214
H            7.21767445908544       -4.70192356285671       -0.07651280760500
H            6.77595726585491       -2.26312954957460       -0.07693897233747
