53
 energy: -9.686423493799 gnorm: 0.000676614799 xtb: 6.5.0 (97a52f5)
O            1.10437636225795        0.03310511785453        0.29586007465418
C            2.30900259747805        0.05125806816274        0.07217781194698
C            3.03492838722087        1.29759343714512       -0.09619728763233
C            2.37302550864171        2.51794762098122       -0.01651746243624
C            3.03501370695225        3.70716964234400       -0.18517671954142
F            2.33738341755923        4.86989464597288       -0.18207162949776
C            4.42779543489710        3.70836542411834       -0.43127005792350
N            5.11817362896029        4.92698237882507       -0.59248805787494
C            6.42858838375644        5.01918800051820       -1.27229388660466
C            7.54195037613319        5.31009437619733       -0.26268956546564
C            7.22173453870206        6.58691890093702        0.53369816556680
C            5.83335194572455        6.49430610241059        1.19221820334132
C            4.75302006270595        6.14519724292926        0.16121592217600
C            5.08523844046273        2.48744588248223       -0.50990708584385
C            4.42048487207082        1.27615939297992       -0.34646767186462
O            5.14731380361214        0.09468773282199       -0.43186793560974
C            4.46856055957083       -1.10860647883258       -0.28088360047483
C            5.18085733023191       -2.29956003353402       -0.37997702865297
C            4.56874956334065       -3.54047487252973       -0.25936897028294
N            5.31801311102826       -4.72997527655597       -0.38317458134809
C            4.70778442087533       -6.01685905047377       -0.76530226479155
C            4.67800039887534       -6.97724305596057        0.42656332888834
C            6.09168306035712       -7.16335713508541        1.00388251240675
C            6.73019577987897       -5.80642070734008        1.35080763375744
C            6.69614541110661       -4.85459008571172        0.14840250761172
C            3.17648641459018       -3.58249181441126       -0.01196041551811
F            2.54446065218035       -4.76622140622781        0.18212282015282
C            2.46731280308971       -2.41290502587640        0.08906564430290
C            3.08288464345749       -1.17257447545381       -0.03931206274850
H            1.31453470055158        2.52924663412000        0.16742475843760
H            6.36443957677459        5.82669554102240       -2.00779382055563
H            6.61690081920807        4.10745109252201       -1.84644711941297
H            8.51499622309536        5.39203931725134       -0.76574823629763
H            7.63216660350349        4.46410201045946        0.42823895634327
H            7.24707232648341        7.45140692087139       -0.14015262140842
H            7.99737603671535        6.77856990896592        1.28738837782148
H            5.58530774050112        7.42984611254259        1.71132220558991
H            5.85177093328725        5.72014450031707        1.96814270027501
H            4.61693427022529        6.96167436174477       -0.55359083830604
H            3.78483925895829        5.98995789081100        0.64553836467376
H            6.14592121790879        2.45618504050140       -0.66710451116687
H            6.22933410025607       -2.23933250522334       -0.59954977329578
H            5.29583776805962       -6.44056790030080       -1.58528013361258
H            3.70617367285253       -5.83241624818412       -1.16673152407117
H            4.23742640026233       -7.94211814610204        0.14083064878835
H            4.01844957671047       -6.56269727212327        1.19854825279653
H            6.71879916062677       -7.68269179346411        0.26937034852076
H            6.06741372412263       -7.81819877285877        1.88560330545481
H            7.75973354125614       -5.94073475603360        1.70957268747031
H            6.18199428338596       -5.35086042344382        2.18406914718695
H            7.34098428043777       -5.22159320412541       -0.65555619344370
H            7.07293088945505       -3.86558566491648        0.42436971443700
H            1.41095727963053       -2.45641719304707        0.28007696308559
