49
 energy: -9.065586834837 gnorm: 0.000522328200 xtb: 6.5.0 (97a52f5)
O            1.10498111641949        0.10397584274487       -0.17631796084497
C            2.31870094084918        0.09771008719819       -0.01450448832790
C            3.07595953231324        1.32854092218154        0.11377801319150
C            2.43287378731150        2.56032993303258        0.06769644782401
C            3.12611967868644        3.73705486640172        0.18704510361084
F            2.46902529503844        4.91458320562521        0.06243472506070
C            4.52812229482909        3.71141329343263        0.37257302756158
N            5.26214451383016        4.91038166876718        0.50898279550254
C            4.63388324389059        6.18359666836461        0.87808541907071
C            4.48833966128096        7.05427771935851       -0.36599662952470
O            5.74540652432761        7.25346695356196       -1.00097055078073
C            6.37804845315311        6.03119769322337       -1.36478311292441
C            6.56284528355140        5.11036707908551       -0.15869112284158
C            5.16743217627643        2.47853468139240        0.41035717584708
C            4.47223106717538        1.27964379921601        0.28846657907988
O            5.17534398965253        0.08297153310174        0.35031750264637
C            4.46654824281765       -1.10708577255720        0.24300716003573
C            5.15612209493882       -2.31360480961212        0.31528328962296
C            4.51271384031900       -3.54135073010547        0.21902384953584
N            5.22528477594831       -4.75469893766979        0.30441129408439
C            6.51014338076134       -4.90385446374451        1.01015431213648
C            7.52763339686210       -5.57011808736728        0.08874722736649
O            7.03943832071557       -6.81857534406151       -0.38640888980467
C            5.81221025145318       -6.69415484295740       -1.09538411736374
C            4.72960332706829       -6.02298385654286       -0.24973058838838
C            3.10958230887148       -3.54997998696455        0.04172824350918
F            2.42600331937780       -4.71834746866513        0.01378860372590
C            2.42312590629894       -2.36607092026801       -0.04093726620133
C            3.07094197002083       -1.14057570732673        0.06087198440935
H            1.36799933265613        2.59073425443928       -0.07470578519492
H            5.27037196799832        6.67961806681273        1.61718833363439
H            3.67036939328631        5.98894202872091        1.36111340643270
H            4.07386943191762        8.04411168322663       -0.13319307100509
H            3.82048929595225        6.57665719075736       -1.09289954396647
H            7.33615188912267        6.28857402836597       -1.83547499587516
H            5.75449622773816        5.55375015332383       -2.12994737205303
H            7.25538603136623        5.55636359065060        0.56117238879370
H            6.98365798988428        4.14557969798918       -0.45642321589984
H            6.22616785190528        2.43013114991028        0.57873082296688
H            6.22313596478089       -2.26918827332870        0.41570335814538
H            6.33548129405240       -5.53237992645802        1.88867697007622
H            6.86265215968105       -3.93872853964695        1.38367245431342
H            8.48229315475023       -5.76182365252910        0.59637408007193
H            7.73797052565830       -4.94224103507957       -0.78497020215297
H            5.51737833341153       -7.70512089299173       -1.40678764149937
H            6.01460275018187       -6.11805964589710       -2.00601130363418
H            4.42891381154827       -6.66714167417499        0.58157796618707
H            3.83369005710984       -5.82811223791133       -0.84689674228964
H            1.35675384297788       -2.38587098503193       -0.17373793386251
