126
 energy: -25.271197355580 gnorm: 0.000909032738 xtb: 6.5.0 (97a52f5)
C            1.88463895352491        0.22364973040050       -1.19462970818539
C            3.30250779068497       -0.16469395863623       -0.73779977550341
C            3.39104768868011       -1.70254549749354       -0.67920642316656
C            4.33499399255060        0.33884578570042       -1.76406254871041
C            3.58495794118371        0.47512018700390        0.63082868834726
C            3.59514492060907        1.87654912889011        0.74730053778075
C            3.82818286803061        2.51201921040001        1.94235373553861
C            4.05112855930130        1.74403672881078        3.08310559858895
C            4.05625569717036        0.34423972226998        2.98336474020729
C            3.82015121065368       -0.28534038126802        1.76124204326197
C            4.31945567016360       -0.18162820007091        4.30148613125849
C            4.42257675246290       -1.48614115140263        4.78474274590151
C            4.65692663808596       -1.70775994674250        6.12873914169844
C            4.77604719645133       -3.15078029957986        6.64416294729185
C            3.45598943755176       -3.89683374463974        6.37559813010082
C            5.93093348524509       -3.85981458243214        5.91191186312184
C            5.06237721532170       -3.19868719929525        8.15799563889392
C            4.76982838620256       -0.59716761511115        6.98520967073311
C            4.66905474368951        0.69323977030419        6.52606763007111
C            4.45645645138985        0.91347481168558        5.16704410369260
N            4.30668317010869        2.10707293362871        4.42515724021430
C            4.35780306533982        3.43699476190938        4.96119652765855
C            3.44518279909896        4.40389416071001        4.55321669137959
C            3.45808169631703        5.65879077730997        5.10897223878159
C            4.35412519308009        5.99096364862365        6.12830380244497
C            4.35063818123329        7.30483499025087        6.80947439248675
N            5.51777357760134        7.77010513665925        7.20091186037317
C            5.50059713408798        8.97905826860568        7.79736405122969
C            6.72969867351045        9.54679512634640        8.24116267759054
C            7.93704704093039        8.85884752671218        8.07571171361943
N            8.94892805684242        8.30279677498225        7.94560435299201
C            6.73408065142649       10.78608133768399        8.84026202561670
C            5.55865441068623       11.49712537335569        9.01992857452506
C            4.34938894364612       10.98596264747550        8.60638769628087
C            3.18295172199401       11.73185451344081        8.80981251508013
N            2.22517005255843       12.36390322906077        8.99282602839103
C            4.29780617276751        9.70549466093412        7.98308326855211
N            3.10352238508176        9.21271032899235        7.60009324078710
C            3.13229444936943        8.01888753596552        7.04764887813615
C            1.83054550921228        7.41661733007487        6.66570161852524
C            1.40234142772551        6.21020656127128        7.22608435519420
C            0.28933526331883        5.57014502910252        6.74008175903072
C           -0.43010742190085        6.11258544964325        5.67848552054128
N           -1.45903786289901        5.34658939678895        5.03103517024679
C           -1.41441417056713        4.92851076918278        3.68392356208212
C           -0.48210234893918        5.18050957604624        2.68152062256373
C           -0.65691907930993        4.59586956744112        1.45158829598344
C           -1.74581937222023        3.74800469181868        1.17475659119906
C           -1.92654265628210        3.07707576855614       -0.19582810549497
C           -1.87013691610414        1.54827882476517       -0.02067800624005
C           -3.28921223281627        3.48265348516084       -0.78824748367241
C           -0.82388590547963        3.49316411007841       -1.18899140518998
C           -2.66488779145756        3.49628911209977        2.17690335818813
C           -2.50263185411200        4.08048978503641        3.43324773913668
C           -3.24635018532227        3.96434070606859        4.66729579433931
C           -4.39870612517799        3.25539439761693        5.00500773893438
C           -4.89187780592093        3.31513242949161        6.29515661950325
C           -6.16472632243979        2.52918808168256        6.64744407120259
C           -7.32510486967660        3.01496488960840        5.75861756348664
C           -5.91885060028278        1.02833780074792        6.40460879281953
C           -6.57041840815141        2.72223128099129        8.12173886306953
C           -4.20769861939933        4.09600313893238        7.24608009423722
C           -3.06979072578699        4.79858712106708        6.93246595428737
C           -2.57949696192810        4.73531885592524        5.63173182948586
C           -0.04677127876677        7.34908770088087        5.16534391376211
C            1.05908251877721        7.99672836465117        5.65686491673246
C            5.29403408117719        5.03030179238170        6.50057707414086
C            5.29905932859334        3.78194627385258        5.92736185305352
H            1.64607007576424       -0.22888252661457       -2.15647884216238
H            1.78627284828303        1.30274273485201       -1.30025909400092
H            1.14296123992859       -0.11198103824584       -0.47085863116328
H            3.20394465909970       -2.13764275173746       -1.66039796951483
H            2.65205330756042       -2.11285326626728        0.00801535814390
H            4.38069446586136       -2.02614013267728       -0.35863606140141
H            4.17076594072981       -0.12047884719832       -2.73821891201733
H            5.34706262250336        0.09578190657374       -1.44244668346479
H            4.27440326366036        1.41822281603706       -1.89287399668323
H            3.41233106444354        2.47067679669808       -0.13086586489518
H            3.85380640882147        3.58470425641885        2.00435908366461
H            3.82215578885414       -1.35790908484563        1.72345216504395
H            4.31654436212505       -2.30850845071906        4.10224639389689
H            3.23535731955187       -3.93956386115884        5.31014055810363
H            2.62404713173487       -3.39656313905387        6.87002684765695
H            3.50384917675650       -4.91979452731223        6.74727405369089
H            5.75109256950210       -3.90707975094881        4.83907188770170
H            6.05337180485034       -4.88016202485193        6.27355733568690
H            6.86965873213346       -3.33037961664551        6.07116337881386
H            4.25667675622906       -2.73430119532549        8.72534740773416
H            5.99505302582124       -2.68904446545982        8.39719919111794
H            5.15333898770315       -4.22876491611273        8.50110874192622
H            4.93680249502352       -0.75559208566250        8.03540654627529
H            4.73257247597440        1.52721144985930        7.20106459516847
H            2.69854356091074        4.14231152588470        3.82443079896723
H            2.75097344513699        6.39314307124082        4.76949865382297
H            7.67051930854440       11.20134464415922        9.17203752343230
H            5.58099932938757       12.46497004021133        9.49142064808274
H            1.98763706914163        5.76351548860029        8.01129715063945
H           -0.00749956592046        4.61362406192970        7.13335890909257
H            0.36140146471181        5.81527145523485        2.88561750229271
H            0.06766865241469        4.79357064219396        0.68240638884285
H           -2.67160609627941        1.19421658360961        0.62589013638420
H           -0.92315408637789        1.24853082147671        0.42655254428946
H           -1.96709362895248        1.04157614026396       -0.98021498285818
H           -4.11097840671676        3.15889930334484       -0.15152425088578
H           -3.43482053399979        3.03659911932979       -1.77145294276184
H           -3.35508799445363        4.56476227033653       -0.89565917106633
H            0.16139542503246        3.20583947228230       -0.82436845660895
H           -0.83232218295659        4.56964315188350       -1.35605577997059
H           -0.97081595056182        3.00925484401276       -2.15404312456286
H           -3.49946919878907        2.84236483894888        2.00620928001314
H           -4.89192485789909        2.66732041941953        4.25388105377169
H           -7.11370636338006        2.84747996957737        4.70367712003815
H           -7.49756555380722        4.08127929831392        5.90028488775338
H           -8.24783469400365        2.48867493840673        6.00036745952813
H           -5.68185192764806        0.82947992436839        5.36058935076152
H           -6.79992874927891        0.44219286497284        6.66343941095059
H           -5.08655427225592        0.67208722622244        7.01054072015904
H           -6.77124489304807        3.77056619491992        8.33953882739130
H           -5.78824544649825        2.37057701448938        8.79351666064103
H           -7.47563500698394        2.16026797137102        8.34946510050413
H           -4.58152721037222        4.14906615589070        8.25268159507701
H           -2.55705836637788        5.39455138803904        7.66618345595095
H           -0.61450592692639        7.77318646109115        4.35551043652640
H            1.37701494712500        8.93326859187184        5.23245675139957
H            6.01475181821046        5.28143251226198        7.25904012759675
H            6.03917777712046        3.05604480153471        6.21466738284433
