36
 energy: -7.658749675866 gnorm: 0.000475935511 xtb: 6.5.0 (97a52f5)
O            1.03919063961063       -0.09215028437111        0.10216196230258
C            2.26187418597030       -0.07502882921599        0.09188438234508
C            2.99723934571263        1.18074541162390        0.05418105713731
C            2.30398135543263        2.38741428776609        0.02930394513060
C            2.96897254538816        3.58379618749991       -0.01481381518837
F            2.31392045436144        4.76297112947195       -0.03845846599675
C            4.37696592071067        3.60267854515618       -0.03897974444895
O            5.02059324046167        4.81009495628436       -0.08352936421930
C            5.06835257292268        2.40085763547175       -0.01536065490666
C            4.40399566445317        1.18252417375040        0.03724491024284
N            5.12160799129558       -0.03666263389411        0.06780770174492
C            6.56565954457252       -0.01719536912328        0.05827851194514
C            7.27608921434339        0.31453132976272        1.20747265563181
C            8.65180570043130        0.32758618547731        1.19707658730948
C            9.33824748760834        0.00886271000295        0.04247579328891
C            8.64487911450909       -0.32197773635043       -1.10450352935904
C            7.26914336075224       -0.33446541779862       -1.09927891491174
C            4.43745563154455       -1.27488894709642        0.10900775716992
C            5.13526519453078       -2.47486110077675        0.14945021360156
C            4.48105319484610       -3.69972776403793        0.18732250015875
O            5.14811583165218       -4.89829126473805        0.22195156625077
C            3.06923368189779       -3.71531553740350        0.18925416305008
F            2.41820491626569       -4.89774100681236        0.22892624396629
C            2.37472408166509       -2.53484732956747        0.15524079399740
C            3.03236638460311       -1.30996622627342        0.11693664127540
H            1.22905528861218        2.37964253491249        0.04347392456432
H            4.35964239483159        5.52385605580899       -0.09084805734112
H            6.14095741368708        2.42959481665435       -0.03993683550136
H            6.73147185403520        0.55609667431625        2.10372005793840
H            9.19399848648360        0.58677490874291        2.09189121603952
H           10.41612455781650        0.01816100520452        0.03648269096413
H            9.18163621336180       -0.57088187050612       -2.00546774267529
H            6.71874798025073       -0.58569859216287       -1.98931162542970
H            6.20791271223325       -2.45607607601781        0.15465762373176
H            6.11289690195924       -4.76129298219288        0.19873572589752
H            1.29983894118666       -2.55497957956870        0.16032012429383
