28
 energy: -5.938360945143 gnorm: 0.000737453369 xtb: 6.5.0 (97a52f5)
O            0.93174832936463        0.05264993922845        0.06374336521325
C            2.14962408049393        0.03906067892311        0.06160729795962
C            2.93956649336399        1.25636148003237        0.05966632380882
C            2.32503004850060        2.49883614113817        0.06013519364290
C            3.07113557059689        3.65638111381116        0.05854062300292
F            2.45968970909334        4.85862135391712        0.05893575087689
C            4.45998306240756        3.57339739761127        0.05643316951535
C            5.08586087460946        2.35603857178621        0.05588455569310
C            4.34937096080666        1.16117027804173        0.05744957237605
N            5.01711054315805       -0.02506188499382        0.05676187100406
C            4.24773814971194       -1.10755444491107        0.05847526370523
N            2.89955172708414       -1.12292761168294        0.06086336570982
B            2.41520878608093       -2.56895430820567        0.06287002498828
F            1.70037211431185       -2.84941164646886       -1.08113653894556
F            1.70610859557113       -2.84790209352657        1.21082807615864
N            3.72342720152796       -3.36250860245401        0.06027056226715
C            3.93594039748034       -4.68628994036439        0.06026717544298
C            5.22502723122391       -5.16132248691182        0.05801292176317
C            6.28940653925450       -4.27284099440923        0.05573957971742
C            6.05917884476820       -2.91690688376456        0.05571911496650
C            4.74823202430211       -2.47226817411755        0.05809293532079
H            1.25073455194184        2.56042392303699        0.06181552781962
H            5.02768289891925        4.48838764030347        0.05525963140147
H            6.16114666554088        2.29321738471573        0.05425511092812
H            3.08196156651405       -5.34372876482866        0.06207192335715
H            5.40860848592179       -6.22414746101248        0.05801656078389
H            7.30124083201373       -4.64641102232646        0.05397012702236
H            6.86787371543631       -2.20583958256767        0.05398091449997
