28
 energy: -5.949158463002 gnorm: 0.000640485130 xtb: 6.5.0 (97a52f5)
O            0.84462650424707        0.02274179202196        0.06746933398214
C            2.06255083461860        0.01237523680413        0.06562231090439
C            2.84983780826936        1.23159809833911        0.06358273252901
C            2.23111102716831        2.48035430501237        0.06362653564435
C            2.99642824903756        3.61261616768987        0.06182815826782
I            2.06618076522716        5.43719406451936        0.06198979766613
C            4.37514716075751        3.55849266174595        0.05991603828084
C            5.00285206853547        2.33475381937039        0.05980028032004
C            4.26199109509836        1.14035698414430        0.06160695550367
N            4.93119267140533       -0.04495417623911        0.06135622517322
C            4.16388338732255       -1.12867921878864        0.06318636571531
N            2.81572731072669       -1.14754884894610        0.06528708028148
B            2.33470342268992       -2.59477976150590        0.06731489741751
F            1.62093562603625       -2.87730689290520       -1.07655923039333
F            1.62604062739584       -2.87557182337667        1.21480105695813
N            3.64491370055908       -3.38488835872622        0.06512851950045
C            3.86065343846983       -4.70808124965523        0.06540828403031
C            5.15078740483026       -5.17998376788272        0.06358169481623
C            6.21292794033827       -4.28903969663728        0.06147139088850
C            5.97955957579615       -2.93379659432100        0.06117959417095
C            4.66762974223868       -2.49229384268598        0.06309223523621
H            1.15293814657162        2.55065258307039        0.06511092266124
H            4.93909592648552        4.48018174866077        0.05855397754497
H            6.07778279108662        2.27131875091214        0.05833767186098
H            3.00843636421466       -5.36755032675760        0.06709554789068
H            5.33683222433262       -6.24224498872989        0.06379715532322
H            7.22551629621094       -4.66019853085099        0.06004867973807
H            6.78651789032974       -2.22096813428221        0.05957578808746
