52
 energy: -10.710744237244 gnorm: 0.000836900606 xtb: 6.5.0 (97a52f5)
O           -2.60273820239972        2.52501526066660        0.23886562238967
C           -2.52441399566970        1.31233724089366        0.15199559917595
C           -1.22755656993673        0.65158278134336        0.06523850671381
C           -0.06293780570859        1.39747333500271        0.07946694042331
C            1.17948922607904        0.78223834227431        0.00667622311116
N            2.36302842082507        1.51310324972752        0.01855542918668
C            3.63268348894087        0.94711553161451       -0.05693583745850
C            4.80694786673797        1.71097742775507       -0.06058165101880
S            4.83092276612279        3.51097713453221       -0.02684971481293
O            5.93889957750940        3.88838925915159        0.89119825232087
O            4.97904411143595        3.93371797185553       -1.44714205481464
O            3.44577776018469        3.98110033893176        0.58169811819972
C            6.02921617367883        1.09521357548498       -0.10197469783208
C            6.12511236953595       -0.28397914072635       -0.15670764300294
S            7.74123961075000       -1.06186690586943       -0.21339695572020
O            7.83367275575107       -1.93693922019996        0.98577421165475
O            7.83356838445492       -1.73923437520085       -1.53495608275428
O            8.75037014187061        0.15448304472636       -0.08710017095414
C            4.99469054483688       -1.05351242176123       -0.17092109720905
C            3.73949187580974       -0.45745082714785       -0.12300972045489
C            2.53949114404708       -1.28781989059697       -0.14006500714308
O            2.61604751744544       -2.50215107355394       -0.20402660497119
C            1.24244765891772       -0.62466644147528       -0.07766885952878
C            0.07797721469983       -1.37060033288368       -0.09211446581321
C           -1.16449614885418       -0.75503500376681       -0.02435420443529
N           -2.34766866087124       -1.48615484136358       -0.03819416273108
C           -3.61775158508076       -0.92059538362015        0.02670296373817
C           -4.79271282886405       -1.68299084950251       -0.00543302358772
S           -4.82633013763094       -3.47495901435357       -0.18060609589651
O           -5.83209823958484       -3.96059595254338        0.80330997833102
O           -5.13804032657577       -3.73028498135455       -1.61480711911982
O           -3.38803362324066       -4.01889854519549        0.20153871329482
C           -6.01447740908498       -1.07216393839701        0.08794045837874
C           -6.10848682394412        0.30391829583855        0.20308377289300
S           -7.71684093827476        1.08958489787445        0.32805117013942
O           -8.52979445391945        0.57949790938987       -0.80793294096803
O           -8.22528219942219        0.79282088307360        1.69442579628457
O           -7.39072591858179        2.62774224366667        0.12704530068017
C           -4.97853974312125        1.07335857731539        0.21953025848654
C           -3.72359865760852        0.48147950510317        0.13272003712905
H           -0.13927676439639        2.46944912446036        0.14840790594031
H            2.30857371990120        2.52205847447990        0.16016860604525
H            3.49199515717017        4.81463010778669        1.05102535964533
H            6.93468498300279        1.68786425191845       -0.08706390049759
H            9.62692921905448       -0.08199235597023        0.22048699430731
H            5.05976647253724       -2.13086553773197       -0.21633854369853
H            0.15469296363596       -2.44281226276361       -0.15694814370465
H           -2.28964092959102       -2.50439368468351       -0.03379955487444
H           -3.38098595531944       -4.93643416300874        0.47548848370332
H           -6.91614840575911       -1.66927444870797        0.06982699780121
H           -8.12554329790168        3.15403126102007       -0.19293093262848
H           -5.04942150359077        2.14937156649044        0.29678748565535
