84
 energy: -19.416044534654 gnorm: 0.000759701592 xtb: 6.5.0 (97a52f5)
C            0.90303788132917        0.07949567021587       -0.00437954090309
C           -0.31715921434929        0.03786265974601       -0.03624850026433
C           -1.72574422435062       -0.00091681099205       -0.04740148410359
C           -2.39380143165963       -1.23507106433814       -0.05664860244649
C           -1.65607692843401       -2.43581582607536       -0.07300609374773
C           -1.01144784384351       -3.47303684686257       -0.09435450492274
C           -0.26905587715790       -4.67215544245040       -0.11336954305297
C            0.98826260241767       -4.72091161190164       -0.70675802509581
C            1.71466542056432       -5.89299083945288       -0.72173916043083
C            1.19639496692699       -7.03529730680598       -0.14596981084472
C           -0.05088624034087       -7.00407241336564        0.44426687745070
C           -0.77824005096741       -5.83258281292184        0.46053754486766
C           -3.79640286217553       -1.27125600491457       -0.04863871552873
C           -4.47557094034739       -2.50619959956860       -0.05208267092877
C           -5.09223166640873       -3.56046663361712       -0.05602569810470
C           -5.82514626168507       -4.76540048480079       -0.06104900428340
C           -5.42236068722699       -5.84642395259622        0.71593567694144
C           -6.14302610106202       -7.02218334091448        0.71359099913385
C           -7.27788034816288       -7.13659083103672       -0.06346862382355
C           -7.69034081492548       -6.07315304574823       -0.84041841524143
C           -6.96964955449809       -4.89736645447673       -0.84084540923424
C           -4.52936090156709       -0.07438225952491       -0.03406565567704
C           -5.93758700961981       -0.12008112506624       -0.01101979252160
C           -7.15596985051377       -0.19539240978886        0.02657289978969
C           -8.56008849600668       -0.31454857481684        0.07786211422069
C           -9.16213298329014       -1.56828582234685        0.10153186787261
C          -10.53476863745994       -1.68881627902071        0.15157315649915
C          -11.32746211075439       -0.55913731688341        0.17957084836946
C          -10.74487230141554        0.69202729972380        0.15847632694618
C           -9.37226579036654        0.81418701948657        0.10850927992648
C           -3.86150753147077        1.15983509753008       -0.03718708052482
C           -4.60146463148464        2.35922516854978       -0.03583715429709
C           -5.25603824363512        3.39041440491592       -0.04405682565561
C           -6.02108959928724        4.57523676504190       -0.06143472922462
C           -7.29225941775937        4.59121094556433       -0.62637198778445
C           -8.04085471853218        5.74916371374869       -0.64354930225901
C           -7.53144143488086        6.91001119721268       -0.09787347600465
C           -6.27096206141055        6.91123694472013        0.46456315339589
C           -5.52137434524560        5.75386177392622        0.48286976663770
C           -2.45867946606413        1.19614912103060       -0.04298595210003
C           -1.78031476909111        2.43146755386649       -0.04558122845266
C           -1.17148123073771        3.49029192111685       -0.05280384229246
C           -0.45325326382093        4.70393404364952       -0.06982182261784
C           -0.91985743721472        5.81839484938884        0.61945017062582
C           -0.21465388962509        7.00336787651759        0.60161462234222
C            0.96843337604374        7.09391072601902       -0.10345942572541
C            1.44454719453134        5.99722485525206       -0.79289362802428
C            0.73956412858288        4.81217546364771       -0.77754378717529
C            2.31103008542652        0.13469082910888        0.05095470843704
C            2.97268797924167        1.35805921098410        0.07318961093296
C            4.34941337249826        1.41233538936290        0.12823758714045
C            5.08646149823939        0.24578764131242        0.16311430090576
C            4.44435814588453       -0.97594583483857        0.14389384672856
C            3.06770751016557       -1.03182114612566        0.08844038013000
H            1.38562220501524       -3.82878714702357       -1.15972017707844
H            2.68823670130283       -5.91685101487480       -1.18357904498165
H            1.76462080153899       -7.95111384996782       -0.15803909118032
H           -0.45691587565524       -7.89625087364997        0.89240629620395
H           -1.75229815417494       -5.80321891923695        0.91828295751485
H           -4.53747106705420       -5.75114149737688        1.32188659219390
H           -5.81976389992036       -7.85275205251655        1.31963712416194
H           -7.84211273729127       -8.05496866792602       -0.06312316359904
H           -8.57652215719397       -6.16139447135560       -1.44753644906779
H           -7.28280950347859       -4.06787587501573       -1.45174314196381
H           -8.53821749250760       -2.44546800974239        0.08018541456076
H          -10.98886361215576       -2.66615511718451        0.16836457466513
H          -12.40042485524684       -0.65370869015221        0.21894591989641
H          -11.36323754949903        1.57448720035493        0.18205509431181
H           -8.91235666544606        1.78739916112317        0.09395251818965
H           -7.68289798702749        3.68445180223558       -1.05548943919809
H           -9.02485964747181        5.74738837813379       -1.08337926288821
H           -8.11696824656567        7.81483603642491       -0.11195863067138
H           -5.87167183804464        7.81796656564002        0.88889180185483
H           -4.53715836862493        5.74971225892032        0.91916235306797
H           -1.84309127544293        5.74282719475560        1.16813555050445
H           -0.58799587160342        7.86023056345858        1.13835418832947
H            1.52025841097352        8.01969539947147       -0.11543621005302
H            2.36839607283162        6.06664550432152       -1.34368706432146
H            1.10277063860985        3.95591874945769       -1.31984388897008
H            2.39246979576989        2.26454690156384        0.04821430954006
H            4.85013892059697        2.36662483740640        0.14441611283801
H            6.16252449470240        0.28879189642052        0.20712024030473
H            5.01900460239683       -1.88733205094477        0.17311498013211
H            2.56129116734072       -1.98168026277985        0.07560329011072
