109
 energy: -21.166544777713 gnorm: 0.000667370397 xtb: 6.5.0 (97a52f5)
C            1.08504467221935       -0.41652211012765        0.51719528065018
C            2.60153798715781       -0.25028007237042        0.30485091298125
C            2.91707995186037        1.25626512804446        0.22577381463773
C            3.36109004103109       -0.84217664111439        1.50661710417914
C            3.01722393301731       -0.99145023247364       -0.97583543790001
C            3.59503998990468       -0.32231395367497       -2.07232708622746
C            3.94443338860129       -0.97833618773648       -3.22707593727467
C            3.72303177095075       -2.35006780740168       -3.31338647808825
C            3.15090900151785       -3.03753501728376       -2.23200531787321
C            2.80185208788690       -2.35388070971540       -1.06670142051620
C            3.00691811847877       -4.41828563142109       -2.63052252329202
C            2.49565747677513       -5.53834399651039       -1.97406133564579
C            2.46601994959162       -6.76105863840336       -2.61815898794178
C            1.89768653587054       -7.98349983873049       -1.88006846660754
C            2.70418250173015       -8.22069640993977       -0.58933572012241
C            0.42138885623463       -7.72221104000746       -1.52816209394099
C            1.97401680923358       -9.26084390077255       -2.73917938007687
C            2.95326935023666       -6.84423222192770       -3.93711677513796
C            3.45627504939321       -5.75194167387393       -4.60019108409358
C            3.48575144594809       -4.52388537859750       -3.94534523808452
N            3.93454885376389       -3.25756702978201       -4.37117203606777
C            4.36391929632549       -2.91500978304124       -5.70118079588950
C            5.61584688711836       -2.35067682476133       -5.92627615897941
C            5.99762043611656       -1.98820164697209       -7.19483770768781
C            5.14433460492929       -2.17011424389073       -8.27773705687914
N            5.53109425620436       -1.70627380255409       -9.58284109471922
C            6.65340262285935       -2.13150112304834      -10.32410040256394
C            7.64110914228839       -3.06779093817331      -10.03415568440788
C            8.62949534075548       -3.29810376477632      -10.95964859524482
C            8.67555232631563       -2.61745684988123      -12.19157073048387
C            9.78084708182735       -2.87690212983991      -13.22763904815120
C            9.14220241883262       -3.36393714077909      -14.54199417957891
C           10.55644988563697       -1.57073751303830      -13.48158807683254
C           10.77913148738239       -3.94872284688085      -12.74793603448696
C            7.69278838616020       -1.68732300143157      -12.47364702287308
C            6.68064244922373       -1.44217810287220      -11.54577141342007
C            5.54918121501433       -0.54590732635056      -11.55804378983837
C            5.10031202546303        0.38840049425338      -12.49172031131699
C            3.97972234277028        1.15096936961827      -12.21999159789196
C            3.50102327067960        2.17819688114616      -13.25783124480763
C            4.62513717058954        3.19779920417075      -13.52147392694122
C            3.14438104944528        1.44896656678332      -14.56643906515365
C            2.25501567600704        2.94598357618163      -12.77430840021726
C            3.31380670550755        0.96235978878025      -10.99401980419176
C            3.74235518373357        0.04733520345360      -10.06466353728367
C            4.86631935832038       -0.72323619191844      -10.34594021281765
C            3.88248684196500       -2.76243045539001       -8.06649733778987
C            2.93471886186430       -2.97760139723352       -9.19063543466939
N            1.84201607450175       -2.21675188517622       -9.23085177956548
C            1.08674686930698       -2.43380851500378      -10.28235672165152
C            1.37095950348989       -3.36716727891465      -11.25061611143347
N            2.41534711565193       -4.16487957505616      -11.21584178192096
C            3.20232083173022       -3.96713804113125      -10.16305867437689
C            4.31370925652096       -4.81675797671000       -9.99394238053081
N            5.19679603923639       -5.55797898463545       -9.84708700210877
C            3.51478146274068       -3.11637522296885       -6.77653290375485
H            0.75516154323599        0.11754377533397        1.40770094681333
H            0.81461615153515       -1.46442642202168        0.63812702875211
H            0.53221975654618       -0.02412549660367       -0.33572488223908
H            2.61582357471548        1.76205476019296        1.14266844882432
H            2.38291106787370        1.72642951437502       -0.59924721573503
H            3.98466252954668        1.42712985359720        0.09159334548126
H            3.09803578358725       -0.32284944945441        2.42761352534513
H            4.43736015270767       -0.75177619889812        1.36357578819144
H            3.12838523899888       -1.89736365009291        1.64170954156832
H            3.76675280427969        0.73738954049772       -2.01278882640510
H            4.37520128793735       -0.45551650423595       -4.06225197236517
H            2.35545348405202       -2.89587486663493       -0.25399026007416
H            2.12651830976158       -5.43543382372706       -0.97074867198354
H            2.63512081782024       -7.36781469143012        0.08415500282317
H            3.75699611924574       -8.38268609876483       -0.81817804983680
H            2.33612123513195       -9.09628171895841       -0.05551260300446
H            0.31746307176189       -6.85570023633887       -0.87678347573962
H           -0.01478899217312       -8.57899252085688       -1.01558929488381
H           -0.16147575509400       -7.53522399036099       -2.42946188495346
H            3.00469239057903       -9.49378218958411       -3.00466220993807
H            1.39447012889797       -9.15337905793437       -3.65540569577957
H            1.57300543396464      -10.11587330812291       -2.19569596789715
H            2.93393786562942       -7.79003954570129       -4.44807958185737
H            3.82643414788025       -5.82673330966683       -5.60701488973788
H            6.27522767182211       -2.19765614083364       -5.08988412488947
H            6.95896173849130       -1.53603005959610       -7.36599322166353
H            7.60992651384343       -3.59965551851777       -9.10031219430164
H            9.38728871960541       -4.02554242337531      -10.73028619548902
H            8.46721852804378       -2.61611980432469      -14.95547236945743
H            8.57050365333708       -4.27650839274526      -14.37652743113510
H            9.90465885389644       -3.57428806759113      -15.29131422669695
H            9.90368003661135       -0.79250551577547      -13.87419007393201
H           11.35831029188342       -1.72758161461332      -14.20235377913463
H           11.00024991939858       -1.20116587932860      -12.55775729983366
H           10.27845539660397       -4.90009237754426      -12.57135306715178
H           11.27449579977283       -3.64013670051305      -11.82798149417634
H           11.55253123721570       -4.11820625528350      -13.49656733595525
H            7.69606767678439       -1.14689671357785      -13.40181446984496
H            5.63712086913937        0.50783548647943      -13.41427763958831
H            5.51469155357107        2.71312619050460      -13.92095353736664
H            4.90613267424667        3.70702909928612      -12.60017039799458
H            4.30632252316267        3.95202909860645      -14.24019619992946
H            4.00904653391321        0.93158619294226      -14.97941064428058
H            2.78545942442870        2.15094038260124      -15.31841383849061
H            2.36273581306845        0.70985933818566      -14.39373230199285
H            2.46294467520992        3.49161680987039      -11.85448582221644
H            1.42087447550084        2.26826381456406      -12.59582646216155
H            1.93482140438932        3.67148868459251      -13.52155714326826
H            2.44035562365790        1.54842108964585      -10.77137277655226
H            3.22388797727049       -0.09341132054185       -9.13331403659565
H            0.19696525216797       -1.82878300645771      -10.37516678815520
H            0.69999991343895       -3.48006342084895      -12.08941900390197
H            2.54563585321595       -3.54643249852090       -6.60437004229662
