87
 energy: -18.825524629656 gnorm: 0.000737210656 xtb: 6.5.0 (97a52f5)
O            0.02252543814314       -2.51118317081808       -0.03697221423946
C            0.02373400170894       -1.28877273107450       -0.00658739861904
C            1.30359161655191       -0.56402069920133        0.01756139913024
C            2.48041188554093       -1.30984232040276        0.05376610499596
C            3.71325612191261       -0.70796912594211        0.08495793963803
C            3.82678728695587        0.68434354191928        0.08123914348180
C            5.14423373918695        1.34889259024738        0.12382874612564
C            5.31094848369745        2.56987667979542        0.78175898226466
C            6.53605115829067        3.18773772050458        0.82634422541816
C            7.65069662337073        2.61414147971388        0.21646811814012
N            8.92873878458432        3.25484783585257        0.27234562320118
C            9.28903360188227        4.05442148143449        1.41021525115813
C           10.01602895918845        5.23142945124736        1.24910602731466
C           10.36516938210571        5.99657195622907        2.33903618309405
C            9.99644092190801        5.60100321990201        3.61003514047280
C            9.27764248987623        4.43472060143571        3.78703754318720
C            8.92775818569587        3.66776843064729        2.69868144540782
C            9.86590697473046        3.10353970792200       -0.80604358047581
C           11.22796788829882        2.96644784598492       -0.54920133113867
C           12.12764182630892        2.82787611858531       -1.58192674908566
C           11.68509799813892        2.82509066746539       -2.89029619330148
C           10.33776130242901        2.96265610315487       -3.16192753103960
C            9.43612078111345        3.10120100953273       -2.13083734991850
C            7.48695863282748        1.39732864128223       -0.44413171210965
C            6.26203747203022        0.77846318611514       -0.48972111731710
C            2.64978707214409        1.42866090399461        0.04154456510424
C            1.40237113638642        0.83160245980387        0.00878547947593
S            0.02718779624907        1.93092773280127       -0.04898652706298
C           -1.35033903846388        0.83431438135006        0.00201557421426
C           -2.59660000474863        1.43401689845611        0.02733789505921
C           -3.77523239631341        0.69224408315531        0.06475959082543
C           -5.09096728433820        1.36101080568688        0.09207283608645
C           -5.29430333702210        2.57155275110289       -0.57485084914229
C           -6.51451001422516        3.19983366358677       -0.54360890954775
C           -7.58715269217999        2.64793058294860        0.15515201430085
N           -8.85652950099333        3.30608624270281        0.18893636945469
C           -9.27975863814013        4.12319895246571       -0.91476286668902
C           -9.94394820824374        5.32692077228221       -0.69171318455101
C          -10.35256780474685        6.10989694380322       -1.74769432673597
C          -10.10799908071766        5.70500540120085       -3.04549914616861
C           -9.45401106233451        4.51172151982065       -3.28342373575926
C           -9.04372421912892        3.72729979769066       -2.22912775837624
C           -9.72221019458962        3.16347851599663        1.32661053630977
C          -11.09956267380608        3.04439446906981        1.15786619804293
C          -11.93227671565617        2.91313295665278        2.24615631633045
C          -11.40601341201002        2.90116075744958        3.52312773931550
C          -10.04245357116866        3.02266219576116        3.70755022828020
C           -9.20752723001328        3.15342435247367        2.62077267339167
C           -7.38817735360051        1.43847318944827        0.81967816209997
C           -6.16812239441899        0.80910023254533        0.78952267289892
C           -3.66500250728535       -0.70027447197573        0.07505882960420
C           -2.43325132343578       -1.30478306842032        0.04995561908858
C           -1.25471107301198       -0.56148745684915        0.01482006304922
H            2.40267205533385       -2.38345545458818        0.06147655713305
H            4.60416686702583       -1.30938218137729        0.13315405952792
H            4.46733825895824        3.02000260675434        1.27513694335246
H            6.64857880222407        4.13192814569855        1.32915308029875
H           10.29478660974893        5.53763542013460        0.25610279077746
H           10.92651421840397        6.90612028190725        2.20012984053644
H           10.26980088145585        6.20087437262819        4.46258225546941
H            8.99186862065255        4.12397116763015        4.77860505914381
H            8.37838455181421        2.75218435227206        2.83179508586840
H           11.56622995861039        2.96397798104061        0.47213875364821
H           13.17871396871439        2.72120694067449       -1.36897103617393
H           12.39017687280572        2.71688584317960       -3.69810638127841
H            9.99218267906626        2.96367220940866       -4.18268641431453
H            8.38697843101504        3.22121579748835       -2.33701909337886
H            8.34197765222576        0.94211603271275       -0.91221342469391
H            6.15239851162017       -0.15276826379991       -1.01749833276724
H            2.70430746991032        2.50302832140911        0.01854794675538
H           -2.64825256884976        2.50877517371334        0.03403949184783
H           -4.48338285407693        3.00603875082259       -1.13302102630677
H           -6.65432447860349        4.13686425355594       -1.05310654520139
H          -10.12589398203778        5.63936270777090        0.32162693699916
H          -10.86268116205099        7.04079280966826       -1.56137556568672
H          -10.42786235481519        6.31888308491344       -3.87147582815177
H           -9.26607251045397        4.19361019112134       -4.29583427876296
H           -8.54389589415309        2.79145248679143       -2.40819801112399
H          -11.50249978878823        3.04985571241283        0.16029028163751
H          -12.99610296790526        2.81926184543408        2.10140424133223
H          -12.05863825063025        2.79835873247228        4.37455474983367
H           -9.63180242765685        3.01700241654654        4.70389759621539
H           -8.14598528555521        3.26149403311769        2.75902528605446
H           -8.21186093697184        0.99810203794077        1.35351878783350
H           -6.02891629345917       -0.11466715810509        1.32360557907617
H           -4.55849916666402       -1.29973381749764        0.08503119259161
H           -2.35791131757382       -2.37859262039278        0.05561666722819
