31
 energy: -6.928953823112 gnorm: 0.000941016697 xtb: 6.5.0 (97a52f5)
O            1.03525485879316        0.07349856525702        0.10711656721758
C            2.24585175913093        0.09836649369717        0.07720487632006
C            2.96981730672863        1.37928386027047        0.09937522922397
C            2.27295485247623        2.56218634465078        0.14058281353049
C            2.93677138730253        3.78656411184946        0.16286150569453
C            4.30058488464988        3.83738727474369        0.14531533790610
C            5.06366154080164        2.65131379075503        0.10412954212795
C            6.47508910594634        2.66001004619031        0.08619489992746
C            7.18109045333739        1.49085116163186        0.04612664382389
C            6.52236446259164        0.26530507924341        0.02119020294480
C            5.14600346170428        0.20730966576055        0.03657318625689
C            4.38964231903958        1.40943578854966        0.08001173157120
C            4.42815741808267       -1.04548246426114        0.00819495632083
N            4.95266709882781       -2.25279652198566       -0.03274790735987
C            3.90807188545432       -3.12285804094010       -0.04784609533488
C            3.93078816192936       -4.52860462615724       -0.07548786647589
F            5.08781046850230       -5.20623781802720       -0.10498026164979
C            2.72855420821412       -5.20251422216277       -0.07407362965949
F            2.71954607868320       -6.54432003268142       -0.10350683022008
C            1.50866285932025       -4.50730084630029       -0.04452968864632
F            0.36037811996630       -5.20004711009426       -0.04492835444552
C            1.46854745217987       -3.12729775065699       -0.01649943980112
F            0.27761591676560       -2.50833322137099        0.00775550592414
C            2.68475727950625       -2.42777233269652       -0.01795904073079
N            3.03068796124977       -1.08148072772726        0.02115528935424
H            1.19541877237742        2.52248993562124        0.15587657375909
H            2.36496180934374        4.70096310202420        0.19476369563091
H            4.80813230699084        4.78709768162481        0.16278517633623
H            6.99272444006185        3.60436857226827        0.10491142674868
H            8.25959750863696        1.51524002195873        0.03378800284545
H            7.08203386140521       -0.65469578103518       -0.01046404914083
