43
 energy: -9.919888225360 gnorm: 0.000846885543 xtb: 6.5.0 (97a52f5)
O            0.72685287357640        0.14642998429430       -0.05383429773052
C            1.93899987844591        0.17458146666016       -0.06747553560128
C            2.63797132388863        1.47430830970769       -0.04028734559946
C            1.91894721477257        2.64443608400760       -0.00355662258403
C            2.55720439940648        3.88357207922257        0.02758816332363
C            3.91943729808916        3.96251012950859        0.02149436066375
C            4.70525604175683        2.79122642205313       -0.01693767227729
C            6.11670104633915        2.82872707427712       -0.02519499687823
C            6.84557465635636        1.67352204618096       -0.06180691111093
C            6.20939432861159        0.43543699706993       -0.09153062621439
C            4.83385057751833        0.34931817213764       -0.08506018230825
C            4.05557257127662        1.53562056697204       -0.04787118185669
C            4.14464568913461       -0.91952722878087       -0.11058682405597
N            4.72717202583466       -2.10645581384349       -0.12825647993682
C            3.72213770895302       -3.00799309075784       -0.13589144209252
C            3.84410141699071       -4.44397881450645       -0.13579438953825
C            5.10023030445214       -5.05363095984148       -0.13628547211489
C            5.21341368788053       -6.41776823315833       -0.12739488028808
C            4.07071293146290       -7.20352251382752       -0.11820614177821
C            2.82746404472305       -6.62278056779328       -0.11852528052095
C            2.67321156290929       -5.22939812091211       -0.12734192858302
C            1.36140324699761       -4.57755863291364       -0.12451149389058
C            0.17374784979786       -5.32227916882067       -0.12060868902971
C           -1.05468747204214       -4.71427745874327       -0.11764046129392
C           -1.14592346087227       -3.33221430856391       -0.11871213061319
C           -0.00610118528602       -2.57738184674620       -0.12221373238617
C            1.26224749884107       -3.16315446754272       -0.12507352206216
C            2.47244369384258       -2.37354193367487       -0.12716297672031
N            2.74686898943174       -1.00826183170324       -0.10694322516677
H            0.84407418924739        2.58773963347385        0.00207751721839
H            1.96708607927274        4.78475879643184        0.05731932135868
H            4.40952411200785        4.92024127833878        0.04626447075451
H            6.61282875606419        3.78338409605034       -0.00110256383780
H            7.92220474216680        1.71814918272932       -0.06740780954982
H            6.78639283797695       -0.47216888425802       -0.11938319716877
H            5.97780383647439       -4.43132385209026       -0.14187512729448
H            6.18665981789462       -6.88061490053779       -0.12623547151336
H            4.16208445333238       -8.27739603378189       -0.10952994939661
H            1.96069104359784       -7.25744265749125       -0.11002413467504
H            0.21689922783282       -6.39573134772423       -0.12043522433224
H           -1.95257960617248       -5.31043362567674       -0.11379367962505
H           -2.11212804650901       -2.85473713989532       -0.11571472875284
H           -0.07298218627543       -1.50824888553055       -0.11935750494032
