31
 energy: -7.125545591047 gnorm: 0.000929066617 xtb: 6.5.0 (97a52f5)
O            0.97568891429736       -0.16019555349770        0.14290142549078
C            2.18620330416468       -0.07575327349713        0.09401829250353
C            2.88711414310459        1.21900965813607        0.11926244054701
C            2.17229387567910        2.39011098218209        0.18275220259087
C            2.81592260924040        3.62569907937865        0.20751969356064
C            4.17807006561189        3.69899994278955        0.17017929078462
C            4.96007569227395        2.52623489238074        0.10551326251096
C            6.37077632237240        2.56607331932404        0.06649756205813
C            7.10217038261998        1.41389611725078        0.00401394971436
C            6.46910357099268        0.17452231248192       -0.02387626601519
C            5.09493664536216        0.08528900391205        0.01093429186340
C            4.30914513999679        1.27125790243665        0.07867730612243
C            4.40721082228774       -1.18575409931848       -0.02089782865905
N            4.94106984765646       -2.39283004068762       -0.07840732602810
C            3.88977205465454       -3.26996161706693       -0.08488751498672
C            3.87302264897141       -4.67063227644049       -0.12138559608152
C            2.66396532301009       -5.31854407522064       -0.10656149787048
C            1.45727600417100       -4.60930907284688       -0.05404300423920
C            1.44647213719622       -3.23888131218321       -0.01567259392407
C            2.66641092474749       -2.56784659130009       -0.03187824207732
N            3.00986398206905       -1.22542212788026        0.00988383920007
H            1.09769892399485        2.33646128236058        0.21386975567663
H            2.23044782668367        4.52893410480561        0.25726793455080
H            4.67185883915846        4.65478335918109        0.18945299068184
H            6.86509593165770        3.52164826225710        0.08707916550955
H            8.17822255019412        1.46192547592799       -0.02434582387568
H            7.04767248774870       -0.73106623369801       -0.07371439998291
H            4.80146939468826       -5.21125924398717       -0.15936294253064
H            2.64007741973846       -6.39528336213782       -0.13493263209461
H            0.52522331774377       -5.14953479563826       -0.04264938283962
H            0.53305889791206       -2.67329201940419        0.02873164783955
