102
 energy: -22.414513468389 gnorm: 0.000604915668 xtb: 6.5.0 (97a52f5)
O            1.44632431321971        1.58608802777955       -3.18140407835638
C            2.44594864166192        1.56265412423706       -2.49581831503570
C            2.67885025501850        2.32171254065240       -1.25213259369645
C            1.85835642838987        3.20920438960471       -0.58161869884094
C            2.32686017618483        3.80120036513639        0.57588229935741
C            3.59608439288959        3.51294859401957        1.05574648789484
C            4.41901382278603        2.62720108334480        0.38933585226830
C            3.95723585233629        2.02486553594586       -0.77215497802334
C            4.58576355417951        1.06645703346899       -1.68385483268861
C            5.85454128016663        0.47356717094688       -1.63233273914710
C            6.76376272943699        0.73705753399576       -0.59263823648263
C            7.55982922241409        0.96203327173862        0.29585026041521
Si           8.80840899279727        1.31856176590548        1.51993906490254
C            8.64732854972288        3.09750784985973        2.02970728445697
C            7.67111529311158        3.45255121544791        2.93612470830655
C            7.49352093034789        4.77820891593261        3.28023789251287
C            8.29319229250683        5.74920662186459        2.71172031754115
C            9.26623139017391        5.39540434535071        1.79856469335692
C            9.44026912388764        4.06861714372099        1.45697695835071
C            8.63214474378919        0.24687715551802        3.02532836893322
C            8.03307290966182       -0.98913650415102        2.90986365889698
C            7.92544199319050       -1.81243123608675        4.01357287590576
C            8.42003940123506       -1.39580897911264        5.23323917716284
C            9.02291336534960       -0.15920516280956        5.34870845727938
C            9.12928687804095        0.66068492189969        4.24244122404534
C           10.50639372950990        1.00990600030833        0.83318326682606
C           11.61918445612393        1.46547470033579        1.50680398461146
C           12.88206330429949        1.22134580727538        1.00385510692280
C           13.02965236184333        0.51642501033770       -0.17375590795039
C           11.91590381729452        0.05398514716178       -0.84528459938824
C           10.65484102059789        0.30020843615422       -0.33966677468617
C            6.17014408681021       -0.39786425786095       -2.67673754891919
C            7.41748645066550       -1.15258190996878       -2.91547217083312
O            8.42180510227586       -1.16130159499699       -2.23644113317006
C            7.19201546155593       -1.90059034579464       -4.16698672993559
C            8.02799301161364       -2.75887889854780       -4.85606931679850
C            7.57116442717739       -3.33117872981744       -6.02797978132828
C            6.29980899371802       -3.04909575993017       -6.50588834773195
C            5.46146302647135       -2.19210216936656       -5.82115078825930
C            5.90891750173888       -1.61474440429861       -4.64158929971257
C            5.26693275030857       -0.67941544093633       -3.71516699514882
C            3.99230494449879       -0.09766007621170       -3.75908289280045
C            3.07524402392157       -0.37804041845457       -4.78783042893498
C            2.27575156479226       -0.59386459397331       -5.67565831726131
Si           1.05911582044250       -0.70003141579447       -6.97775794152375
C           -0.27131179016592       -1.93094117057789       -6.57365446135603
C            0.08057358981623       -3.15384148202866       -6.04398194918239
C           -0.89006135127023       -4.10161413004996       -5.78446356498718
C           -2.21424618620183       -3.82297017082775       -6.05812158711077
C           -2.56703790566030       -2.59893077324520       -6.59018834006451
C           -1.59356958043044       -1.65411256685646       -6.84731988957351
C            0.25872234625838        0.95583106270143       -7.22955763228316
C           -0.31344865791084        1.26848903250390       -8.44372779551709
C           -0.95100965149858        2.48110410283920       -8.61700975722239
C           -1.01326827221032        3.38083387586992       -7.57180478427733
C           -0.43826452418687        3.06875047839192       -6.35624959845049
C            0.19697818760598        1.85460194826932       -6.18608215425012
C            1.84270451233462       -1.20851753161140       -8.58166591080991
C            3.08284909282992       -0.71137220820251       -8.92036885125363
C            3.66722475607265       -1.06828497073082      -10.11983995785754
C            3.00662408579078       -1.92228831519648      -10.98027522422979
C            1.76346473975539       -2.41847437255357      -10.64213650907796
C            1.18288767325900       -2.05982792071612       -9.44167729801460
C            3.68212098960064        0.78520584466772       -2.72202878546567
H            0.87748188211723        3.42546344568499       -0.96698975956668
H            1.69916682985325        4.49510811191662        1.11045863800698
H            3.94497715196475        3.98621049463081        1.95870475813476
H            5.40516485896233        2.40516718277406        0.75422382436159
H            7.04931739817647        2.68654937130789        3.36813268020639
H            6.73154900148383        5.05327910115491        3.99087055206036
H            8.15663395967853        6.78411537385593        2.97972313577200
H            9.88829455471175        6.15312108386747        1.35114322536017
H           10.18950858057450        3.78236004487474        0.73880853983191
H            7.65532401251838       -1.30404309318889        1.95179098910974
H            7.45661575030421       -2.77837950680207        3.92173770863113
H            8.33651296855700       -2.03653483289088        6.09578880222347
H            9.41050504630822        0.16634552559528        6.30004748113744
H            9.59788183969554        1.62702454691450        4.32030571947844
H           11.49235356011810        2.01097419727086        2.42655370895501
H           13.75047552509836        1.57976644964162        1.53178013465140
H           14.01429637042056        0.32423325360183       -0.56752780279869
H           12.02907663346894       -0.50113013837360       -1.76203772493978
H            9.78371609636478       -0.07137463720701       -0.85462699251550
H            9.01254323148064       -2.96596547155842       -4.47506430288948
H            8.21087941162452       -4.00235192136678       -6.57713365866699
H            5.96247095213231       -3.50353048789182       -7.42283431616763
H            4.47854047042365       -1.96420798006015       -6.19116143961850
H            1.11773180616083       -3.36057622646262       -5.83992431163609
H           -0.61337961507827       -5.05733853312256       -5.37058476430297
H           -2.97257216464240       -4.56187284191636       -5.85703319079696
H           -3.60013425597604       -2.38086944923089       -6.80570771317874
H           -1.85656766401005       -0.69695602600798       -7.26331931659538
H           -0.25686948558034        0.55844957408415       -9.25122212693470
H           -1.39896667522423        2.72366320684786       -9.56664172377374
H           -1.51072961217840        4.32755674820331       -7.70506085821331
H           -0.48496265888301        3.77026677469755       -5.53951797478129
H            0.64890151975489        1.60574611648612       -5.23929245797262
H            3.58692070289207       -0.04459261641437       -8.24120329498354
H            4.63761980667426       -0.68039791803960      -10.38286056163314
H            3.46142868528326       -2.20137429384889      -11.91662133081902
H            1.24676973619649       -3.08487747619763      -11.31310264754598
H            0.21470936281508       -2.44129069803040       -9.16580606606076
