111
 energy: -21.278641006315 gnorm: 0.000776779909 xtb: 6.5.0 (97a52f5)
C            0.49734140843322       -0.31689229533150       -0.37344829734329
C            2.02375112362560       -0.23327708536630       -0.18535652303079
C            2.72898633779647       -0.60246780446444       -1.50379791302836
C            2.38895669748085        1.22139217125684        0.16948109099312
C            2.45564163450333       -1.21744141303161        0.91338230533637
C            3.12709865384713       -0.79302397377962        2.07624428761719
C            3.52042523428312       -1.67239413234931        3.05509952434224
C            3.24343446573529       -3.02767629489613        2.89387217928698
C            2.58132508154779       -3.47173089299621        1.73924776635975
C            2.18890015838009       -2.56434756969973        0.75490867640563
C            2.46951488401251       -4.90781063611801        1.83497943806349
C            1.91378527340926       -5.86241734867377        0.98317793960842
C            1.95087872939297       -7.19978073786911        1.32980492759246
C            1.33447388755003       -8.23694494301672        0.37750822125678
C           -0.16219383437243       -7.92709403678073        0.18727339052264
C            2.05386569365277       -8.16956882211513       -0.98272448999682
C            1.46677785617762       -9.67127892077946        0.92539472005136
C            2.55460223901104       -7.56653838073371        2.54820602368862
C            3.10784257566127       -6.64004940781443        3.39809407542957
C            3.07174896588107       -5.29406349885270        3.04228190156422
N            3.54649461729524       -4.14222280153191        3.70355072492379
C            4.28502556607368       -4.11023104288483        4.93678239565499
C            3.91778453792327       -3.24447927669147        5.96340293361884
C            4.65437505841354       -3.18199882925607        7.11976085559040
C            5.78630585434115       -3.97354077799281        7.29000350050337
N            6.57723586133155       -3.84647555732829        8.48398012452764
C            6.15421228759599       -4.14151783210669        9.79757213986780
C            4.94173456615185       -4.62300031863559       10.28207241820826
C            4.80653219373384       -4.83887165011390       11.63208837646164
C            5.85441872203558       -4.58993361021022       12.53916676231197
C            5.70170293051991       -4.82785381496919       14.05007071071080
C            6.75072852752755       -5.85663251021245       14.51266253774718
C            5.91558693007255       -3.49842639981250       14.79788894211122
C            4.30332027649422       -5.36723766131521       14.40919387737325
C            7.05758538580447       -4.11531388950635       12.05106236904337
C            7.21319616986592       -3.89243395710599       10.68320569890967
C            8.32902753203369       -3.42056094326271        9.89695056666542
C            9.61804657356749       -3.01617252995398       10.24419882568977
C           10.49309499153567       -2.58579188462848        9.26412754673859
C           11.90913508705399       -2.14235023821153        9.66415821652636
C           11.81250405683631       -0.94287296487005       10.62532399147653
C           12.63097624890017       -3.30992157242862       10.36280963163233
C           12.74601575860371       -1.71908612260813        8.44089283550258
C           10.05242371459323       -2.55988559120350        7.92754349249475
C            8.78672551443702       -2.95324720678633        7.56944980719107
C            7.91400297775504       -3.39841420949716        8.55747783791804
C            6.15885493596480       -4.86295742908202        6.26655110249233
C            7.34027563570242       -5.75684078895388        6.43076209692233
O            7.34070494243014       -6.63558678762766        7.27504220899055
C            8.51308173923671       -5.55216912794413        5.55413505496431
C            8.52752329791936       -4.63735220889933        4.51393852704779
C            9.66655389036637       -4.49068886195976        3.76086496077544
N           10.78885666726220       -5.16867425919182        3.94696029111200
C           10.76185000517649       -6.03950486425691        4.94431475062068
C            9.67881232656346       -6.26531018466216        5.75899756645116
C            5.39657406305573       -4.91905533760664        5.10915052056737
H            0.15949493883749        0.38623913322193       -1.13417180619246
H           -0.01845461141386       -0.08103540827161        0.55686731441919
H            0.19004247095616       -1.31466139655054       -0.68330479263711
H            2.45462255022506        0.08934953443413       -2.29963180917748
H            2.46063695677979       -1.60666730137986       -1.82885643687344
H            3.81139575382820       -0.56733470519650       -1.38406098675906
H            2.06925077467979        1.90266205963630       -0.61858015097376
H            3.46572102313080        1.33838008831889        0.28764098857287
H            1.90188029801406        1.53427229827507        1.09248659664110
H            3.34548585802007        0.25160900991798        2.20730241874552
H            4.04244118721673       -1.33597634724440        3.93289366252537
H            1.68769290314685       -2.92668730740255       -0.12324928634004
H            1.46131224578397       -5.54446746394018        0.06240334006802
H           -0.31017041886975       -6.94175136124818       -0.25228745614513
H           -0.68415973921593       -7.94900617582356        1.14340770926378
H           -0.63118353538256       -8.65846137869027       -0.47028382544426
H            1.94413024278570       -7.18774536708620       -1.44095423322580
H            1.64845065300855       -8.90686191476190       -1.67499622737172
H            3.11888630920226       -8.36692361142784       -0.86494169169687
H            0.95458918754039       -9.77511409922824        1.88139398923672
H            2.51268046092011       -9.94538608142543        1.05968144439696
H            1.02462097728554      -10.38986230776242        0.23578409258680
H            2.58659758504525       -8.60392465232882        2.82921921419491
H            3.56000345451608       -6.93340979014209        4.32865105593303
H            3.04668819116074       -2.62589597735411        5.83567729325372
H            4.37641642950700       -2.50381128118252        7.90773912186657
H            4.13670394675565       -4.82144837794887        9.59717009951200
H            3.86759716905171       -5.21150729081714       12.00045662558106
H            7.76345981677677       -5.49854374805838       14.33344728417174
H            6.62868732022813       -6.79780376170145       13.97749216399703
H            6.65383298199074       -6.05949115760369       15.57882359616532
H            6.91336742696422       -3.09996041309172       14.61997185881482
H            5.79730599138478       -3.63223932569480       15.87273849340404
H            5.19358700698407       -2.75155141286691       14.46927152752166
H            4.11122905597052       -6.31926735742248       13.91540143811534
H            3.52432639751625       -4.66232935042784       14.12051274224712
H            4.21691442181256       -5.53053359243415       15.48311924381539
H            7.87985010400375       -3.91523661282299       12.71249435363006
H            9.91611638224293       -3.04141698377220       11.27578525771529
H           11.27404213360390       -1.20648021580732       11.53453258429723
H           11.28653428020499       -0.11344485894060       10.15356656095855
H           12.80336761564522       -0.59382253849539       10.91426335886627
H           12.10980848553087       -3.61302747594466       11.26967821830732
H           13.64645954251904       -3.02961323816605       10.64100963611062
H           12.68845098993572       -4.17583019239806        9.70404300757699
H           12.29001157674670       -0.87424614509953        7.92587058094925
H           12.85109159083287       -2.54142792128747        7.73387763500012
H           13.74770820429615       -1.41638132114378        8.74470591912670
H           10.72229195487648       -2.22333009781115        7.15684807484580
H            8.46109993855345       -2.92906374659461        6.54552740676947
H            7.65425511285801       -4.04467235915114        4.30610367221815
H            9.66900166583965       -3.77435296002051        2.95281759268810
H           11.66874142628367       -6.60056475063349        5.11423950928870
H            9.72418115742682       -6.98380106382810        6.55916709574517
H            5.68026764610082       -5.59364085869472        4.32213147965899
