64
 energy: -14.236298192312 gnorm: 0.000640372260 xtb: 6.5.0 (97a52f5)
O            1.10016700740139       -0.36981537075820       -0.35421813441906
C            2.31520247662115       -0.24350934550579       -0.30915371492375
C            2.94452718697303        1.07705801154832       -0.35616706510724
C            2.15797181102946        2.21969730536542       -0.45481863981956
C            2.73049783209608        3.46707861902950       -0.51276991822930
C            4.10925281881016        3.59542330221518       -0.47577615653787
C            4.90142139905247        2.47896196840765       -0.37760353524121
C            4.34302765452998        1.20101468285119       -0.31083577946855
N            5.16577624705268        0.05188329789084       -0.21354346691559
C            6.60342298292894        0.20418774584686       -0.17508347916679
C            7.23524710159022        0.70606806279986        0.96041596644602
C            8.59698369747382        0.88139210976942        0.98551542814923
C            9.38468904756401        0.56071750265786       -0.12269807040641
C           10.84601839807498        0.77808798721815       -0.10396407969198
C           11.52813617432353        1.17367497165881       -1.25667041229021
C           12.88246895796113        1.40421921767085       -1.23365833147365
C           13.60976305019841        1.25063362927362       -0.05802094433760
N           15.01921751888477        1.52753192163487       -0.02723687655771
C           16.02206107094496        0.71160716845740        0.53939122517330
C           15.94722705503304       -0.54089303445774        1.14839217129462
C           17.10242080314328       -1.12091767478117        1.61242643492481
C           18.33630525990997       -0.47773345950839        1.47963408599376
C           18.42961356848036        0.75336145799299        0.87685490584394
C           17.26408014235005        1.35437716472948        0.39875466656503
C           17.02482493425470        2.60840851257917       -0.27431194192401
C           17.87664959482142        3.64587116961078       -0.65710991548191
C           17.33638941636647        4.74748574882895       -1.27545093967728
C           15.96226105722645        4.83482908477302       -1.51563910953229
C           15.11257861157746        3.82132962649336       -1.14596780598850
C           15.64445579797914        2.69128526295114       -0.52491996336535
C           12.93916199899035        0.84705669149752        1.09187893076079
C           11.58488398849619        0.61472770932171        1.06994974117375
C            8.74606469999421        0.04834474764508       -1.25457499399817
C            7.38403560385149       -0.12602311055784       -1.28058007443639
C            4.59168177314250       -1.24176836821541       -0.15979108989777
C            5.39454055942135       -2.37818371786194       -0.04630093439263
C            4.84269479566707       -3.63368897451429        0.00920202524357
C            3.46737771052510       -3.79067402501016       -0.04449852211344
C            2.65660382223316       -2.68685806911574       -0.15036681881419
C            3.19743976244022       -1.40698573609990       -0.20702975069925
H            1.08802119119162        2.10720787391844       -0.48753651507242
H            2.10908932538296        4.34417259132467       -0.58934237082983
H            4.55950807255716        4.57332046429118       -0.52480243226335
H            5.97147634940477        2.58089950899385       -0.35466372082701
H            6.63464426296130        0.96062523681386        1.81607718856775
H            9.06633787096608        1.29436208732168        1.86125318624059
H           10.97675676267738        1.31948253492134       -2.16907426493232
H           13.40007598928647        1.70150101353652       -2.12877141133343
H           14.99726070756965       -1.03625442288334        1.23784393988488
H           17.05848510183329       -2.08793758023513        2.08587075002895
H           19.22657038703625       -0.95565051365977        1.85406000563978
H           19.37544626584200        1.25393665386872        0.76801506174960
H           18.93210688250742        3.57355360504499       -0.46274381080700
H           17.97954777557992        5.55834917322830       -1.57529821465305
H           15.56420984549568        5.71307209659771       -1.99674667886765
H           14.05347660351596        3.88921346220612       -1.31719157387069
H           13.49585836007065        0.73754734879077        2.00595710279593
H           11.08272397771753        0.29349054872698        1.96574956845112
H            9.33619434155304       -0.22266773412692       -2.11253112469404
H            6.89807679610150       -0.51282213080284       -2.15918761773709
H            6.46201278263858       -2.25817950014005        0.00035344391440
H            5.47917782721868       -4.49898846448171        0.09562612692713
H            3.03491754832802       -4.77676526948098       -0.00109830959563
H            1.58650158312698       -2.79584237812557       -0.18971344539188
