66
 energy: -14.402730690145 gnorm: 0.000402250392 xtb: 6.5.0 (97a52f5)
O            0.89747376036246       -0.09305236334538        0.51654400531397
C            2.11241269169629       -0.02650123280234        0.39160147090827
C            2.78842549779754        1.25780723165685        0.20929548155603
C            2.04580651184491        2.43336235239338        0.17323417716259
C            2.65725976537695        3.64860262053323       -0.01617310782534
C            4.03118360806626        3.71020561080149       -0.18056696190387
C            4.78019774940949        2.56036455383570       -0.14716109729237
C            4.18425420471516        1.31415396191551        0.05747750070121
N            4.96195131311841        0.12926971825030        0.09576015392150
C            6.39627041901459        0.20732581217417       -0.06220723891827
C            7.18525051055809        0.84669818755525        0.89118033694911
C            8.54690816703510        0.93164038393506        0.73425501455837
C            9.18357100688000        0.36908092635588       -0.37556810657127
C           10.64821338306088        0.45691651140006       -0.54099233973890
C           11.23746216916931        0.41320663117543       -1.80746073896582
C           12.60001256401056        0.49278772124472       -1.96012307092339
C           13.43900031437277        0.63185270743587       -0.85626883653859
N           14.85743831509641        0.72921030725374       -1.01685103768888
C           15.41917499195647        1.27100829725077       -2.22328637650100
C           14.84120818782052        2.37008449784418       -2.85417752764873
C           15.38463373446068        2.88182869761045       -4.01099161280274
C           16.51697441165606        2.30966663131157       -4.55719004344543
C           17.10542690032274        1.22293285481143       -3.94035028682875
C           16.56292838477233        0.70821715435835       -2.78458266836132
C           15.74138577929047        0.28718727022354        0.02635441940201
C           15.48210897955630       -0.88102395603329        0.73906338733117
C           16.33598596005779       -1.30075065626408        1.73415438370788
C           17.46532517156561       -0.56425726499090        2.03442117554215
C           17.73863975289937        0.59431449037636        1.33390782976676
C           16.88607008430103        1.01647435541894        0.33895243237705
C           12.85611004436725        0.67742188293572        0.40859614304709
C           11.49448430436939        0.58747205884445        0.56353910898104
C            8.38591856278246       -0.27749542047215       -1.32390010683481
C            7.02274452006019       -0.35106537854952       -1.17397552018461
C            4.34120839781781       -1.13191899158663        0.28055018581875
C            5.09733497790548       -2.30420629738607        0.34405028580566
C            4.49942001670202       -3.52775752312206        0.51679195239318
C            3.12246613111919       -3.61653856781760        0.63780310385960
C            2.35775374229734       -2.47652682622953        0.59196386937935
C            2.94611166677574       -1.22814489009514        0.41852495674711
H            0.97802361911130        2.37170235054971        0.29415838761752
H            2.06983235290262        4.55171582459309       -0.04089730736732
H            4.51178754747193        4.66239715796446       -0.33475769767623
H            5.84490822821795        2.61270025046558       -0.28571686083069
H            6.70686276491065        1.27629333336890        1.75405733863088
H            9.13210697597770        1.45645330738011        1.46852542365307
H           10.61110908220681        0.33412643472742       -2.67835344649740
H           13.03757788511461        0.44187449278484       -2.94155555311454
H           13.96636141582703        2.81935296802420       -2.41786454356508
H           14.92612546664180        3.73093169788340       -4.49079988288324
H           16.94121688612503        2.71089655998505       -5.46293539686754
H           17.98883429638782        0.77562820605423       -4.36570703250081
H           17.01055925389830       -0.14478092626012       -2.30540979281531
H           14.60765533944788       -1.45734741799719        0.49269453873592
H           16.12354506053170       -2.20604788098988        2.27888990507058
H           18.13252109360081       -0.89365066305480        2.81400316155353
H           18.61966944029794        1.16935824872317        1.56752311952924
H           17.08891526667005        1.92217286413237       -0.20530048258075
H           13.49134790454575        0.79471145634193        1.26880552180610
H           11.07258714841642        0.60012345210141        1.55293396746342
H            8.85029434925464       -0.74026649298459       -2.17667799010049
H            6.41780969587660       -0.84364785652813       -1.91514856157353
H            6.16716739581904       -2.23958233753597        0.26090469135571
H            5.10109015592842       -4.42089850091026        0.55838047985025
H            2.65331930555149       -4.57747380003760        0.77130203819977
H            1.28741541484369       -2.53184678899418        0.69169127865916
