44
 energy: -9.902569291485 gnorm: 0.000225638996 xtb: 6.5.0 (97a52f5)
O            1.06603043291466        0.27847335685469       -0.75315593053818
C            2.24309702051496        0.18284918736622       -0.44624638291004
C            3.07343794500492        1.36524777616471       -0.21021147725699
C            2.47974951044258        2.61834291674336       -0.11722666033232
C            3.21921312230636        3.72227423386283        0.22850816400115
C            4.56597277767200        3.58317230570684        0.51491145808081
C            5.17008482460297        2.35425240241521        0.41425881011131
C            4.45662280139923        1.22673831768431        0.00079289961252
N            5.08099500007589       -0.04666158668805       -0.17292531187318
C            6.47874774696430       -0.19382323033392       -0.40919793644201
C            7.26249148482323        0.84483635361517       -0.92037340376140
C            8.61520004442102        0.70374397340693       -1.08718480125356
C            9.25631622114045       -0.49907767381837       -0.77642548796735
C           10.71783312227279       -0.65090547072798       -0.94927628460717
C           11.25107964077949       -1.77538957111715       -1.57650440857188
C           12.61180003867736       -1.91185299164980       -1.73960083367231
C           13.46657093773241       -0.93223867757790       -1.27697612299944
C           12.95646886095953        0.18687227335420       -0.65118064881682
C           11.59618266351250        0.32860989400562       -0.48959377263219
C            8.47691393085772       -1.55630841878500       -0.33229071907241
C            7.10720324357326       -1.42827013871934       -0.16457660442032
C            6.31173203951595       -2.60155682480075        0.19974284947760
O            6.83845936570615       -3.64801132190210        0.54057037990382
C            4.85833599135054       -2.47317444001113        0.08686727272125
C            4.05434085000386       -3.59928260283462        0.15905228143835
C            2.68742875070512       -3.50011781949754        0.01992497115118
C            2.10651656681669       -2.26837469731500       -0.18740468279175
C            2.87967935340771       -1.12006097815197       -0.24647574394490
C            4.27797679282767       -1.20596796046210       -0.10994853176672
H            1.42188544848132        2.70157703480024       -0.29906011690826
H            2.74777005222724        4.68839373241747        0.30264995131542
H            5.13968470928205        4.44164402550934        0.82357690065965
H            6.20027825829638        2.24683475086907        0.70343288151948
H            6.78501469222634        1.75528230604912       -1.23543634008576
H            9.19898578973904        1.51740412433183       -1.48144299487022
H           10.58365651375605       -2.53347476239188       -1.94823154426173
H           13.00988814104123       -2.78401436059495       -2.23180451196749
H           14.53117203287961       -1.04094955174131       -1.40428067351346
H           13.62394023019731        0.95024010979126       -0.28627227971271
H           11.19818086474648        1.19607701616594        0.00792244543682
H            8.93598129780247       -2.50442037400023       -0.11793942075911
H            4.52112139017243       -4.55641792746622        0.31633109906922
H            2.07398118833768       -4.38449094955863        0.07136754289517
H            1.03966830983508       -2.17749376097054       -0.29847627968371
