34
 energy: -7.714064371305 gnorm: 0.000457019102 xtb: 6.5.0 (97a52f5)
O            0.90761174951640        0.08680160362869       -0.55235427451672
C            2.10173452769253        0.03714972878142       -0.30791442185828
C            2.90091403417591        1.25132730993946       -0.13624802428917
C            2.26933186945023        2.48512962716654       -0.03626838111171
C            2.98632115584829        3.61985623681694        0.25195565679188
C            4.35005868741550        3.53267113040129        0.47053471422453
C            4.99138470543881        2.32384411926484        0.35982420167416
C            4.29686236227320        1.16460295222097        0.00678038719545
N            4.95432482933398       -0.09016716425883       -0.17124504299964
C            6.34505002046447       -0.19693766753964       -0.47609768503568
C            7.05869191140719        0.84889997495556       -1.06572545062554
C            8.40695358228774        0.74637787619696       -1.30307523247851
C            9.08499545780177       -0.41525640962067       -0.97734919979847
C            8.39672843593267       -1.48028516660013       -0.45138536852245
C            7.02907850208456       -1.39804419914279       -0.21899881845325
C            6.29192870895206       -2.58672006176374        0.21252788270938
O            6.86715973732732       -3.60417009895841        0.56187561898501
C            4.83155464275629       -2.51410894304901        0.15383326142260
C            4.07272594804668       -3.66589784638183        0.28481097877688
C            2.69835794169770       -3.61806012490187        0.20284915205770
C            2.06449820522309       -2.41233270623542       -0.00293511003455
C            2.79227741584451       -1.23912360422396       -0.11921550767543
C            4.19746126457029       -1.27360766148464       -0.04653450044905
H            1.20132651870577        2.52846938431845       -0.16575579374337
H            2.48553885811561        4.57046079013750        0.33441907046405
H            4.90780461655181        4.41642171681282        0.73409215409314
H            6.03886333315194        2.25744915635989        0.59425961293252
H            6.53160391200260        1.73133013709141       -1.38182759012686
H            8.93927360751940        1.56929966568447       -1.75129515056597
H           10.14435287456723       -0.49184385913511       -1.15941026672253
H            8.90122020582836       -2.40591353693990       -0.23222145893313
H            4.58049674479973       -4.60199832773761        0.44283431220357
H            2.12018534061376       -4.52229488301327        0.29920310716647
H            0.99107829260269       -2.36093914879037       -0.06761283275727
