124
 energy: -24.429910981867 gnorm: 0.000382917528 xtb: 6.5.0 (97a52f5)
C            1.04008402341251       -0.13269487897949       -0.32669215090437
C            2.53981135937984       -0.26221386672872       -0.00082993436807
C            2.86127117262987       -1.75393668246639        0.21588172167301
C            3.37472563218883        0.24619173908233       -1.19094203291383
C            2.86693982356615        0.57823813805213        1.24364704561944
C            2.61952444495433        1.96294138669060        1.22014810600586
C            2.90048283212318        2.77643266970444        2.29017264676832
C            3.44549476796658        2.21064074890451        3.44016703726635
C            3.70675087914499        0.83249040593140        3.48124237102316
C            3.41489645916176        0.02026240137081        2.38454203043719
C            4.30733111459998        0.54886210999547        4.76340308249573
C            4.77652045290648       -0.63423476297683        5.33416130234261
C            5.32737030274391       -0.61699563824800        6.60171098628638
C            5.85233138871562       -1.92849185495193        7.20762822882915
C            4.70283499217807       -2.95062337779371        7.28794385708321
C            6.97765038157099       -2.48450547930095        6.31498508936283
C            6.41634532024311       -1.72135354173126        8.62678927293769
C            5.39654792919024        0.60841280945369        7.29174993259111
C            4.94159655698475        1.78344118514852        6.74355700512404
C            4.39555529688094        1.76280825980310        5.46247254853037
N            3.86471963695006        2.79422501282971        4.65644989022969
C            3.85257646449858        4.20053106515516        4.95362966214266
C            2.71100491649978        4.96194555313981        4.72560756224748
C            2.71946063124450        6.32079162943269        4.93902891358421
C            3.86921331741002        6.96515195821671        5.39027897191443
C            3.88406464165521        8.36424751065424        5.56252704234744
C            3.88636416891880        9.58356843171368        5.65006873611642
C            3.87633242409640       10.99339771865166        5.69027271491167
C            2.67429677414885       11.69526892199636        5.69666811853056
C            2.66140412262919       13.07290645277283        5.70943341661225
C            3.85019995874086       13.79692428438310        5.71551561331405
C            3.83593103685918       15.20725362273748        5.71516141702910
C            3.82014559985895       16.42958721053194        5.70767711206868
C            3.79960835536880       17.83903641794094        5.70062344937695
C            4.95592665694257       18.56932575886620        5.43510272305095
C            4.93651142921213       19.94504011137604        5.43690703015223
C            3.76046490880755       20.63789256541091        5.70497338565864
N            3.74511444533195       22.07488591165770        5.73090252573226
C            3.19499900549544       22.88020560984451        6.75271734153883
C            2.55739584623476       22.54542495227675        7.94486042609487
C            2.13030870263996       23.55214490287035        8.77640836514114
C            2.31963182895913       24.91204921846834        8.46503870657596
C            1.84486169761630       26.03746707643350        9.39789090973590
C            3.06091893408983       26.86374575811709        9.85636187317732
C            0.85760317376423       26.94538953924450        8.64054705870777
C            1.13301439318212       25.48565870268159       10.64853092778943
C            2.96185248047587       25.23966496353955        7.28563241204414
C            3.40189637342572       24.22993713270781        6.42961282112980
C            4.10135219664370       24.26678556609438        5.16706743992217
C            4.55462910742516       25.32543798259572        4.37994097600348
C            5.20201929904041       25.06867931722510        3.18600121229888
C            5.69811931625887       26.24802715022034        2.33415937896594
C            4.50105192147448       27.13689414273730        1.94766361175119
C            6.71273289722891       27.07220763938154        3.14875619942192
C            6.38685182555712       25.77305569068076        1.03987595593287
C            5.38522139344084       23.72968553788218        2.79113114049979
C            4.94651634629300       22.67523834078321        3.55507537451683
C            4.30144841009046       22.93835947167809        4.76110844471776
C            2.60306473594803       19.91142684524963        5.96517043020470
C            2.62216958118698       18.53579195769269        5.96317138543480
C            5.05232528856879       13.09506665199469        5.71372541725756
C            5.06525176235205       11.71726948621512        5.70107369242821
C            5.00579051998977        6.19743185731501        5.63515618612338
C            4.99721940801501        4.83808673123036        5.42130277124124
H            0.77655652000468       -0.73703052166180       -1.19438691274073
H            0.76873999775386        0.89901584608650       -0.54611682548435
H            0.43313847431996       -0.46711468403646        0.51424599562629
H            2.61717719413570       -2.33473185035633       -0.67339540718538
H            2.28475749168421       -2.16286224125791        1.04525964700887
H            3.92077355718339       -1.90099835749378        0.42384951300350
H            3.17799839584463       -0.34374827482839       -2.08579607731991
H            4.43978503525034        0.17949029085804       -0.97025308587627
H            3.14526434607975        1.28587237471702       -1.42059057324768
H            2.20082411826635        2.39950981746742        0.33016443471046
H            2.72025495335849        3.83554873241835        2.24863882981998
H            3.63101165513225       -1.02942424511565        2.44575480575328
H            4.70813115003947       -1.54953561490465        4.77622084414702
H            4.30594538150882       -3.18007470304918        6.29993113951766
H            3.88558548916178       -2.56380097887672        7.89612291210933
H            5.04275927304860       -3.88479770596103        7.73443264986557
H            6.61581124235235       -2.70192872432855        5.31088224514110
H            7.38455754145297       -3.40669174968950        6.72914140200858
H            7.79147131635992       -1.76491911586761        6.22905248522495
H            5.65004205673093       -1.34203798127589        9.30229178287132
H            7.25112920611188       -1.02102669868957        8.61931405537863
H            6.78093727115276       -2.66242078341019        9.03820292090638
H            5.81878537614027        0.63307263350262        8.28038732624566
H            4.99446414605105        2.71068697242217        7.28566151901929
H            1.81871395664695        4.47068411327417        4.37843821794065
H            1.83547382921793        6.90547918498681        4.74849354658308
H            1.74932720349426       11.14397805527132        5.68466352518891
H            1.72620630446245       13.60676308016869        5.70993763512086
H            5.87122988207910       18.03972080560753        5.23197607809919
H            5.83723247729286       20.50278896159102        5.24856961433514
H            2.41654233299125       21.51100175931560        8.20249125890346
H            1.63817337320937       23.28517246364487        9.69444535556010
H            3.56985692701005       27.32253567267352        9.00965097461848
H            3.78037638075066       26.23280374282409       10.37769477771137
H            2.75738973245904       27.66099028296397       10.53444960410217
H            1.32912661412022       27.40981068796856        7.77552965640175
H            0.48796272053239       27.74234951766516        9.28535093262094
H            0.00071940975638       26.37215444222258        8.28753119533705
H            1.80126499294752       24.85591804252815       11.23527054799245
H            0.25535202686144       24.90080890642449       10.37441372908154
H            0.79855783839660       26.29873330909968       11.29256151865723
H            3.13200139430081       26.26597668646424        7.01823582529345
H            4.39387645695176       26.33386627167011        4.71312139428071
H            4.01229138282202       27.54926172896227        2.82937082999932
H            3.75995487715103       26.56389176043933        1.39097770757670
H            4.82066590379112       27.97136025800693        1.32390317749112
H            6.25867531405756       27.48000503496832        4.05093377693294
H            7.09680931668636       27.90695926350983        2.56287829175107
H            7.55806483772489       26.45378337939059        3.44946135216491
H            5.70082442305753       25.19828049774117        0.41825511038467
H            7.25639504474656       25.15493259358654        1.26175446455129
H            6.73000315119226       26.62346618326441        0.45097353947449
H            5.88295657798274       23.51790305010589        1.86177719164947
H            5.08484036590068       21.65801016593444        3.23515791323097
H            1.68768155852399       20.44309646717276        6.15836693231786
H            1.72237046797202       17.98013665991956        6.16613064044307
H            5.97732389547557       13.64639752086488        5.71719516741943
H            6.00039443873083       11.18338039629124        5.69371179047252
H            5.90007748718354        6.68649559119692        5.98232853939661
H            5.88613484935544        4.25485689200102        5.58723567061207
