65
 energy: -14.397931761749 gnorm: 0.000929147605 xtb: 6.5.0 (97a52f5)
O           -0.16321744742697        2.59702624560582        0.14423238887825
C           -0.15039076490787        1.37357225055326        0.15934226187949
C           -1.38292044978834        0.59559958963864        0.23014577079006
C           -2.61800435166309        1.23130718074359        0.27972636937527
C           -3.78134527439610        0.50418002845611        0.34338729606136
C           -3.73139337458484       -0.88089155638089        0.35944985303124
C           -2.52303298701304       -1.52727404577826        0.31240985672793
C           -1.32353455351250       -0.81034192039380        0.24688017577924
O           -0.12467591261306       -1.51092837338929        0.20059669265002
C            1.06079171787085       -0.78819227761741        0.13125875287021
C            2.26770555991720       -1.48176185620095        0.08386692922028
C            3.48460683988195       -0.82339070768074        0.01234995133614
N            4.71804652381376       -1.57222780543882       -0.04183946906286
C            5.02759114801143       -2.32664836241594       -1.21006024435997
C            4.19898340291901       -2.25480897359360       -2.32782937940769
C            4.47286946261482       -2.97367776142571       -3.46758802025086
C            5.58723902273517       -3.78314453301094       -3.51490314081511
C            6.42199311190064       -3.85987856639228       -2.41993344638099
C            6.16500249818903       -3.13840363644629       -1.26670860562850
C            7.12876195689910       -3.26453885455024       -0.08491163113285
C            8.53216793110302       -2.91388467910388       -0.57494286685877
C            8.78523337422066       -1.64447689107138       -1.06160574913963
C           10.03789018001943       -1.28786507046632       -1.51569272718227
C           11.06343130974756       -2.20926914235313       -1.48873514497893
C           10.83175271414519       -3.47614148991420       -1.00915741505381
C            9.57098259975040       -3.85391668637907       -0.54566928759987
O            9.41002967193634       -5.15597161016362       -0.07345882235716
C            8.16208149757998       -5.54705418371242        0.41116433946230
C            8.02431854677788       -6.84914999070617        0.89391588725239
C            6.82344396715267       -7.29912415648065        1.38843142382000
C            5.73029738583532       -6.45870011638622        1.41094125012974
C            5.84905962314003       -5.16946556128369        0.93585716975705
C            7.04817716622497       -4.69755540591803        0.43443754582167
C            6.77648008371037       -2.32531667270164        1.07137124679120
C            7.61539452181188       -2.27796034873277        2.17169075213916
C            7.32407027280891       -1.48530797870757        3.26179513549599
C            6.17246157876422       -0.72856625472163        3.26626388072914
C            5.32693847701107       -0.76479445161252        2.18251727974774
C            5.61214507954960       -1.54981843907112        1.06729901249577
C            3.49217822422841        0.57669501141066       -0.01740130797780
C            2.31833414057292        1.27859493756694        0.03194346556455
C            1.09345663839433        0.62038033299267        0.10694742418553
H           -2.64422861613197        2.30731792971288        0.26648570236282
H           -4.73255075205807        1.00902368670574        0.38093778715487
H           -4.64494058286480       -1.45033438608804        0.40907526998226
H           -2.47401625715505       -2.60160100136342        0.32444004235453
H            2.24958404318533       -2.55469838116400        0.10584637851177
H            3.33291240275802       -1.61852913547060       -2.29387361370278
H            3.81768525400342       -2.90506251220586       -4.32047578856246
H            5.80633728231145       -4.35234940332661       -4.40327612289851
H            7.29386960833304       -4.49039429149640       -2.45108336370769
H            7.98075739991863       -0.92979929108737       -1.08088815471227
H           10.21464769482962       -0.29375905677715       -1.89168863511197
H           12.04397887723734       -1.93623676141435       -1.84270700214468
H           11.62270462218504       -4.20427343010020       -0.98208453996921
H            8.88438649704027       -7.49467503000758        0.86999142054749
H            6.73684330803491       -8.30789541435490        1.75763106457200
H            4.78705410626784       -6.80713930606062        1.79814830361856
H            5.00061476647153       -4.50745230441400        0.94914638700686
H            8.50629836113903       -2.88210310159483        2.16851667928386
H            7.99063924446938       -1.46265926635814        4.10821556019166
H            5.93407915279422       -0.11193552935213        4.11733919121169
H            4.42365273772066       -0.18217545391140        2.19365330835461
H            4.43595238991384        1.08864336447146       -0.08548113682239
H            2.32298734626036        2.35469085889492        0.01163640867305
