43
 energy: -9.513975635911 gnorm: 0.000755323488 xtb: 6.5.0 (97a52f5)
O           -0.01596930286077       -2.55078231746251        0.21650548322173
C            0.00123933685432       -1.33478671036679        0.11726634319511
C            1.28809247263089       -0.61989379012288        0.07905044763348
C            2.45358838903686       -1.36611694742048        0.23107145274366
C            3.69283306016026       -0.77124044785607        0.20902282961214
C            3.79461846196146        0.59489727326486        0.03227761039349
C            2.65333850621238        1.35025548177851       -0.12146111989663
C            1.39634028227268        0.76252217509287       -0.10164094816621
S            0.02864192935654        1.85175239996761       -0.31920665162456
C           -1.36109011816411        0.78537306036760       -0.13094579757216
C           -2.61187449241298        1.38681581494068       -0.17579976723405
C           -3.76271794728472        0.64453264808144       -0.05161751034256
C           -3.68998428842330       -0.73301593815649        0.12293078410381
N           -4.88037411920840       -1.52810247062547        0.25148963593179
C           -5.15139281444218       -2.44976154824324        1.28159062279331
C           -4.40942902788835       -2.80398989495859        2.40801662250128
C           -4.92369244235333       -3.74178637707475        3.26848405391583
C           -6.16707752391271       -4.33406282941707        3.02914877577282
C           -6.91296167592080       -3.99315887746770        1.92684198476412
C           -6.40407744965349       -3.04045382195722        1.04272332070785
C           -6.92212786570159       -2.46770484372581       -0.17709916204440
C           -8.10404973728411       -2.67768817423253       -0.88929056461850
C           -8.30961436392241       -1.96932467534507       -2.04840693793313
C           -7.35840627351329       -1.05636381934890       -2.51287713424462
C           -6.19193828331838       -0.83759923055906       -1.82302795456945
C           -5.96957398946928       -1.54456784910339       -0.64169089882481
C           -2.44375581462618       -1.33135510293168        0.17127473282507
C           -1.27177517117860       -0.59792906288129        0.04957801311913
H            2.36350463771084       -2.43004380451068        0.36844319756957
H            4.58208604050589       -1.36791504523068        0.32904878048177
H            4.76299513513979        1.06709408704572        0.01347750565011
H            2.72239277785016        2.41662126699135       -0.26188687026278
H           -2.66730924626405        2.45440299511753       -0.31197287607947
H           -4.72864380834091        1.11732100619845       -0.07739279823032
H           -3.45695894606706       -2.33880035147668        2.58788305283668
H           -4.36133977787921       -4.02561440544808        4.14277432987872
H           -6.54535610103034       -5.06786699662206        3.72153519176883
H           -7.87138802419783       -4.44312477227357        1.73765334479736
H           -8.83044041647032       -3.38343854145322       -0.52724637334396
H           -9.21637615324374       -2.11998882065903       -2.61052650235308
H           -7.54364419030031       -0.51735193749932       -3.42736916083637
H           -5.45173769165037       -0.14279755058338       -2.17695750193327
H           -2.37656397270691       -2.39622125383365        0.29723841389017
