23
 energy: -4.901227987289 gnorm: 0.000950705635 xtb: 6.5.0 (97a52f5)
O           -0.00372119577365       -2.57118521406844       -0.10134075991498
C           -0.00257762842042       -1.35356496428814       -0.04626255933467
C            1.27991964610966       -0.62836625254483       -0.00920894642133
C            2.45148624756261       -1.37856257935672        0.03865430093846
C            3.68632190076667       -0.77571720320527        0.08251112290799
C            3.77712597722355        0.60233263926118        0.07963433739865
C            2.62986679217115        1.36180294797593        0.02878417255333
C            1.37754011106767        0.76533630059478       -0.01894702753711
S            0.00004744818536        1.85855516788499       -0.09910568032235
C           -1.37941727752587        0.76760846152063       -0.02339546139607
C           -2.63113392378047        1.36605398584062        0.01419989495993
C           -3.77948748009390        0.60852669921089        0.06910421030102
C           -3.69037821844489       -0.76949012024908        0.08741587535220
C           -2.45628786338185       -1.37430732942804        0.04988232235208
C           -1.28375120679113       -0.62616113035648       -0.00521928085495
H            2.36945485628991       -2.45192982615505        0.04116681894160
H            4.58040090924234       -1.37595884855551        0.11963696916071
H            4.74177544706270        1.08100087085873        0.11553923870626
H            2.69052170485415        2.43775618686002        0.02304379291979
H           -2.69038405671150        2.44198424972430       -0.00193659460809
H           -4.74365690816867        1.08869869053300        0.09688044272566
H           -4.58521930731296       -1.36818963462263        0.13040721253625
H           -2.37567597413045       -2.44771309743487        0.06209559863561
