26
 energy: -5.687129821582 gnorm: 0.000682669383 xtb: 6.5.0 (97a52f5)
O            1.06407261590657        0.05408172004653        0.05200912841386
C            2.29412682740599        0.04232590455409        0.05375468361590
C            2.96218502467177       -1.21983997577365        0.05481556406822
C            4.32977776624306       -1.30912565890094        0.05775576831031
C            5.02080052448636       -2.54819577012182        0.05915468982557
Br           4.05056005606823       -4.14786911919621        0.05698979850342
C            6.39548316471755       -2.62156818527804        0.06206044522432
O            7.06307529735081       -3.81345988864793        0.06341187341184
C            7.16925520137573       -1.38603157195552        0.06373504310681
C            8.55107946674280       -1.40437839608526        0.06653952544218
C            9.27723818724424       -0.22359731232892        0.06797936689224
C            8.63896147656656        0.99206270934240        0.06666747914056
C            7.23896199443856        1.06445360614663        0.06380968871691
C            6.53150312636004        2.29662296231631        0.06222495162755
C            5.17552842779193        2.32477612127570        0.05934803122774
C            4.40969474552941        1.13279023347287        0.05785584807352
O            3.03564343626460        1.21024772866874        0.05495328045218
C            5.08218625199843       -0.09466250400540        0.05938217035770
C            6.49792194550278       -0.13907028126417        0.06234646367538
H            2.36509693856334       -2.11156809259060        0.05358698983956
H            6.43262765880089       -4.55765515475912        0.06190850800185
H            9.05240253648097       -2.35704956334030        0.06753660730212
H           10.35417057810221       -0.26190072032504        0.07013191698452
H            9.21016288938668        1.90410215197992        0.06775756616153
H            7.09186020111354        3.21536829008102        0.06331383634847
H            4.64586366088694        3.26097076668869        0.05813077527574
