30
 energy: -6.405743411677 gnorm: 0.000738378226 xtb: 6.5.0 (97a52f5)
O            0.97426315571979       -0.02172005604548        0.09294014833738
C            2.20243880390724       -0.01119727805401        0.07900660531601
C            2.89060684998710       -1.26170353704452        0.08938959253875
C            4.26262275779618       -1.34478362099730        0.06836584747984
C            4.97696882035211       -2.57733856616278        0.06489332171696
S            3.98293101792529       -4.08885922552374        0.05548790377736
O            3.03746884774715       -3.97836425186993        1.20694218880491
O            3.34344573963751       -4.12565313379325       -1.29569412113934
O            4.92994649147240       -5.34741011933960        0.27676298035546
C            6.35697673342981       -2.60101094999863        0.05738789338321
O            7.12294429259370       -3.73641600862453        0.06545648845909
C            7.09512508933364       -1.34626738616825        0.03882169282171
C            8.47689575563066       -1.33492692494341        0.02208978668956
C            9.17894862927844       -0.14055029479507        0.00042488115499
C            8.51511291706619        1.06061014669785       -0.00484216142396
C            7.11418038001611        1.10221743369186        0.01169108643562
C            6.38202404248398        2.31902406842784        0.00608078173588
C            5.02669231935075        2.31535737331366        0.02012743545148
C            4.28917188846945        1.10548924333742        0.04112611409787
O            2.91870819483081        1.16520245691139        0.05386540645990
C            4.98426903244981       -0.11095381741982        0.04758555505214
C            6.39862745545608       -0.11700055049479        0.03338565099621
H            2.29522811572092       -2.15604206806602        0.12995664144301
H            4.44010821891479       -6.11767061610548        0.57578667057047
H            6.52963148203465       -4.50957620881825        0.12122787535784
H            8.99637548259125       -2.27912367781644        0.02506303710227
H           10.25720022924912       -0.15678566265258       -0.01221644289257
H            9.06779905509663        1.98477774633594       -0.02225269569747
H            6.92136557462625        3.25122148265824       -0.01001290346227
H            4.47326262683232        3.23889400335968        0.01627273907803
