27
 energy: -5.534989684430 gnorm: 0.000564053228 xtb: 6.5.0 (97a52f5)
O            0.69038003931917        0.08821518618613       -0.02554850266326
C            1.92099900547845        0.04382184626726       -0.04186384798887
C            2.56406742260116       -1.22411297276320       -0.04810686349704
C            3.93363138987686       -1.34412881260700       -0.06320461147388
C            4.55631677231199       -2.60494824596604       -0.07437884414483
C            5.92490580107664       -2.72677306482715       -0.09361006336623
O            6.52591423221675       -3.96160969830022       -0.10993967725755
C            6.76378649564276       -1.54826435694558       -0.09748103663651
C            8.09985957868573       -1.82370278410818       -0.11498979139132
C            9.20882717542957       -1.12974182657903       -0.12537810891308
O           15.20837355706694        0.19373578879206       -0.06547623167664
C            8.25146077888594        1.06080544373683       -0.08123009074026
C            6.89014354472462        0.98804222431105       -0.08398543954473
C            6.17853335169924        2.21097202696718       -0.08310376673470
C            4.82493700943981        2.25414960412786       -0.07629970292285
C            4.06846921744504        1.07045223545076       -0.06737662210211
O            2.69438113772134        1.18677023140724       -0.05422887552030
C            4.73758574777913       -0.16494357771169       -0.07161899754937
C            6.16679931273935       -0.24560116578973       -0.08449019939932
H            1.94756309091077       -2.10287388156415       -0.04171573916416
H            3.94593659505475       -3.48811303324900       -0.06939079549654
H            5.85918592616235       -4.67241756055418       -0.11121768009253
H            9.94074212596921       -1.70229288091455       -0.13576969547277
H           15.54287862649552       -0.42458537550732        0.60251904246121
H            8.79286875544715        1.96113155462835       -0.07973921182789
H            6.73779422843093        3.13150899128474       -0.08738197065218
H            4.29979908142753        3.19301410437291       -0.07565267618854
