12
 energy: -2.505180707989 gnorm: 0.000528999480 xtb: 6.5.0 (97a52f5)
O            2.31833356308436        0.84121298827070       -0.01101529510951
C            1.24415065836859        0.26058588346615       -0.00713956393219
C            1.16659785523122       -1.17496583145911       -0.01138655260526
C           -0.03470293639436       -1.78199213909902       -0.00123866244661
N           -1.19449130109573       -1.05114342879971        0.01224969021228
C           -1.18665411957298        0.33486944955495        0.01246143796151
O           -2.21950288752960        0.97661822629211        0.01953340994088
N            0.04723442248342        0.95334554908221        0.00319984610417
H            2.08391335362605       -1.73843838964814       -0.02159913689715
H           -0.10354531772722       -2.85998243929941       -0.00337463516302
H           -2.09590070757505       -1.51019430140366        0.01823274056639
H            0.08099741710131        1.95713443304293        0.00647672136851
