24
 energy: -5.079131350959 gnorm: 0.000449143667 xtb: 6.5.0 (97a52f5)
O            1.42378735611848       -0.68760344327486       -1.18352239556724
C            2.52208361005937       -0.40190596123378       -0.69892724883819
C            3.53247783425643       -1.38205010536953       -0.51002616669432
C            4.73539059998132       -1.04071779571401        0.03654686035516
C            4.99669312268769        0.26593968208956        0.40957611392237
C            4.04593788434242        1.26935314574574        0.23919772982543
N            2.82021817688032        0.91082797167509       -0.30701846471317
C            1.76948543744717        1.89519886208809       -0.46045615517177
N            2.20556775244248        3.25575960038780       -0.16847607145158
C            1.33299767625507        4.28959007939099       -0.40438044561991
C            1.68137481240171        5.56955706587325       -0.10936464428747
Br           0.47144538251925        6.97650712250489       -0.44138408891651
C            2.93366735362048        5.83355288207502        0.44103248044444
C            3.80725639654285        4.81088614958531        0.67698712651581
C            3.46496609646007        3.47914338562904        0.36852283836800
N            4.36645221716621        2.52327929883974        0.59969506597271
H            3.32270446928566       -2.39440819503192       -0.80413643280358
H            5.49204298778848       -1.79540792877242        0.17692405276369
H            5.94899784459662        0.53014598661749        0.83417373008693
H            0.94428351037578        1.63193619973991        0.20667177386946
H            1.39525289792964        1.84565587196022       -1.48634963258473
H            0.36407248150533        4.07546704795389       -0.82174056970616
H            3.19883535471316        6.85184448679971        0.67405141769910
H            4.77787874462402        5.00561859044071        1.09802312653156
