32
 energy: -6.204892195037 gnorm: 0.000671117200 xtb: 6.5.0 (97a52f5)
O            1.62375320548552       -0.54572234402425       -1.70801505271010
C            2.76983847986370       -0.50980419260247       -1.27132104971641
O            3.46683682668274        0.70425742428941       -1.31334565358969
C            4.63006677519837        1.01828280141480       -0.61260064190945
C            4.90182683243159        2.33352975397736       -0.38641362949068
C            5.99786855927862        2.64180478282661        0.29865559943836
C            6.57437964011435        3.75776903570889        0.69295351003468
C            7.74037834552146        3.64674666951892        1.40272129528766
C            8.37719452228178        2.51838153289489        1.75542932444969
C            8.43578664757500        1.16920617389006        1.74520618726534
C            7.73425301358146        0.01651967643295        1.27116599719548
C            6.62152842951002       -0.43362490824558        0.56702482599594
C            5.52107134428017        0.07032926381662       -0.09524963475935
N            4.48960912209973       -2.13669810693523       -0.92713855053629
C            3.30304413887744       -1.77871790140988       -0.69763493892541
C            2.40605657812760       -2.70893600194818       -0.00368812557776
C            1.06334057105865       -2.42221059907719        0.23431186995945
C            0.25933658408911       -3.30828824155216        0.91360630099208
C            0.77877799814700       -4.50197049917925        1.37197736671454
C            2.10610887284945       -4.80536117256877        1.14661976251644
C            2.91013615808215       -3.91868317210474        0.46746216015557
H           -0.27046991471201        6.91718856444086       -2.08687940322353
H            6.15134578964645        4.72090186538992        0.46753114465329
H           13.52174090839751        7.78402841025852        2.76752008249662
H            9.32807954133475        0.86581528870785        2.28623750314249
H            8.30136656001272       -0.85769746898886        1.59097196400643
H            6.58782439018710       -1.51545636317008        0.50313235781855
H            0.65447082997655       -1.49962052415079       -0.13743604905829
H           -0.77825290429237       -3.07221900783411        1.08482238797659
H            0.14839685341076       -5.19542749868959        1.90418423878221
H            2.51394804519464       -5.73634417345358        1.50499860691565
H            3.94744725682403       -4.14493906804741        0.29242024325580
