26
 energy: -5.547736163411 gnorm: 0.000677614547 xtb: 6.5.0 (97a52f5)
O            0.98452220190635       -0.14885341768428        0.04459909019421
C            2.21070260280502       -0.19995660025340        0.04646954281647
O            2.88383172883825       -1.40095130863995        0.04779537130140
C            4.26646135745277       -1.39493728141130        0.05033237626538
C            4.94027647342493       -2.62836371433110        0.05173959059219
C            6.29999222230595       -2.69343165741831        0.05447371162666
C            7.08220326299404       -1.51693275438867        0.05590740864650
C            8.48478499130672       -1.55868718941078        0.05876059395377
C            9.21609670013975       -0.39766445337874        0.06007352805912
C            8.58947244569341        0.83400802339136        0.05859380417118
C            7.19813353216955        0.94088050866353        0.05563603642948
C            6.51163284355221        2.20794404199386        0.05409858657560
O            7.16177530366798        3.43431084712460        0.05502252582551
C            5.12809507326733        2.23818525955031        0.05159796324906
Cl           4.40936466852382        3.79630303090775        0.05059505442547
C            4.33864368883443        1.05261898525710        0.05014358986364
C            2.95315794190700        1.03504399711054        0.04733560402708
Cl           2.03252900615254        2.46594146325826        0.04398389603917
C            5.01451875060191       -0.20554522809388        0.05160736665301
C            6.43076570736496       -0.25768686258050        0.05437434212332
H            4.34692975006229       -3.52602388252569        0.05066029051740
H            6.79553911403998       -3.64898849303565        0.05558197749252
H            8.98215771202640       -2.51329448606164        0.05992703919540
H           10.29302842362938       -0.44730794722700        0.06234923657611
H            9.19805715541905        1.71903476789138        0.05995532113117
H            8.13065734191399        3.33667435129220        0.05321615224917
