32
 energy: -7.035068830154 gnorm: 0.000716192005 xtb: 6.5.0 (97a52f5)
O            1.01479910729266       -0.14827290537880        0.62586135737816
C            2.23232675109748       -0.12876847476345        0.49282097490281
O            2.96499666501966       -1.28589038664159        0.56628307199508
C            4.31620721920641       -1.18164625363107        0.39442659211491
C            5.10376637097884       -2.35910484872500        0.45343479026212
C            6.44595219849110       -2.32201117402589        0.28667425775983
C            7.11169551487229       -1.09228297872000        0.04824134436478
C            8.50561836603002       -1.02214421399849       -0.12956827983939
C            9.11964844349817        0.17612300497179       -0.35695449317167
C            8.37047439015811        1.35126849774205       -0.41566308834835
C            7.01638667859206        1.31255425550960       -0.24756945338344
C            6.35324140853226        0.09718247977228       -0.01300504393632
C            4.93009180969252        0.05163119784471        0.16129292795806
N            4.21987083648903        1.20819802458821        0.09138159784438
C            2.92405836830375        1.14060730861362        0.25007090835058
C            2.18861418263457        2.40732041063660        0.17209216649362
C            0.81335583340173        2.51508199130618        0.37237724767850
C            0.17336248733758        3.73017128534583        0.29228341594644
C            0.89134353913355        4.87334526724365        0.00908898016975
C            2.25353358125348        4.79378185853153       -0.19270222969434
C            2.89182867255527        3.57728573275614       -0.11148011765244
H            4.59930755721432       -3.29170277895397        0.63405753121251
H            7.02536147649390       -3.22764537033360        0.33341025017343
H            9.08402969690560       -1.92867555246764       -0.08433433823035
H           10.18804779123279        0.21671237103907       -0.49141606483176
H            8.86463974622088        2.29205275800811       -0.59441680113853
H            6.43345206365929        2.21546509894367       -0.29221317301088
H            0.24754555632285        1.62922437183015        0.59219017686032
H           -0.89091477457023        3.78952235804018        0.45007286627771
H            0.39019038674109        5.82513083250971       -0.05562464224695
H            2.81791307987014        5.68485942633268       -0.41302661528627
H            3.95398499533905        3.51237640607537       -0.26769611697514
