39
 energy: -6.263605712066 gnorm: 0.000879698153 xtb: 6.5.0 (97a52f5)
O            1.79745188007626       -1.30552168228428       -1.03606046714686
C            2.34839569187835       -0.55522756375787       -0.24365220808968
O            2.90317645169827        0.64090242548486       -0.66856339374670
C            3.63582628754106        1.35365505762330        0.20519079679953
C            4.20403514873063        2.53251871130333        0.00009556947761
C            4.94882920470713        3.25869826692950        0.80900137042918
C            5.37005908452278        3.05005313575316        2.04577520318894
C            5.16382440674027        2.02960394316992        2.85973442077701
C            5.66420640267087        1.90158326715719        4.12970662868301
C            6.48656749604027        2.76425983028893        4.75384570259664
C            6.98424743597497        2.61228132725835        6.00843121123557
C            6.78403499548173        1.68123516464188        6.91201577681990
C            5.96229608634379        0.63421442207687        6.86611184768767
C            5.82508336039008       -0.31122650200933        7.81951498837965
C            4.96737025259583       -1.28894023069011        7.86038280973697
C            3.92809189587455       -1.54315792395208        7.03740387772669
C            3.24793520584442       -0.68581284911721        6.23250776459323
C            2.94856100590998        0.62399763815161        6.45841916909889
C            2.41495791918141        1.49790916947235        5.55063694175672
C            2.11914147899733        2.73379529957949        6.02065827293975
C            2.15543626802263        1.28234899218246        4.19549641327631
C            2.43097726145738        0.15943355893724        3.46964224089620
C            2.21986199236404        0.08505589858130        2.11747933160099
C            2.39989547143554       -0.93996010237502        1.19541661343507
C            2.54677186464233       -2.28728200509228        1.56525178317445
C            2.50279376303512       -2.66386466396813        2.87146105063009
C            2.73055502856802       -3.24324838113769        0.63177526295717
H            3.96941373239830       -0.34745078480636       -6.11483298567917
H            8.15620619564771        0.46292725481429       -6.34479216670891
H           13.08697381003581       -0.63004957476895       -1.58297912940954
H           11.72162721697114        4.49505507998719        1.35334708450883
H            6.79186526235367        3.64372513398659        4.21204231547236
H           14.33176687755645        2.38065182523476        9.08869129491359
H            9.41967464337310        1.62937376136270       10.66257291494447
H            6.91830951541931       -1.37797328122794       14.28161963358883
H            1.01456343395605        0.55443932927202       12.85008743552356
H            3.14678474434554        1.01837014143638        7.44050871303405
H            1.72812445959011        2.11747834129983        3.66666906534552
H            2.87617671983054       -0.68152143073050        3.96550683640251
