35
 energy: -7.744596389619 gnorm: 0.000663268660 xtb: 6.5.0 (97a52f5)
O            0.75162518831827       -0.16629090765688       -1.18681956618645
C            1.90492574682185       -0.00589827029954       -0.82056842798996
O            2.43741403608083        1.26323903985189       -0.79003730233384
C            3.70713543899008        1.45414976876081       -0.28584460111209
C            4.13626070191433        2.76858436371348       -0.06953115236160
C            5.34059905949615        3.02760162676432        0.52474788423325
C            6.14449810356988        1.97661709702786        0.93359623961726
C            5.74982803540478        0.68289045791895        0.71127273737515
C            4.55516601490867        0.38183456626841        0.04862170938987
C            4.08954477451282       -0.97439710628582       -0.19727651234780
C            2.73783812135442       -1.15384053638513       -0.44210134589689
C            2.15012253580478       -2.48641372268568       -0.30899511790473
O            0.94905319623696       -2.66145324941197       -0.44560621227144
O            2.96033037253224       -3.55077276803312        0.01665014404506
C            4.32046552412320       -3.38499058939233        0.04363622800406
C            5.10893628205646       -4.56697570693583        0.23987367957419
C            4.50137618429236       -5.80125997118846        0.49987564463803
C            5.25513688763321       -6.92439909950144        0.68885601908365
C            6.64739702166980       -6.85570641636483        0.62084195089564
C            7.26793989721309       -5.66928002213715        0.35990981045409
C            6.51452283335554       -4.49415029865769        0.16150638607035
C            7.11302294719845       -3.26397617883137       -0.16090372113163
C            6.36853219973271       -2.11676564319355       -0.35236307385408
O            6.98335441484739       -0.97925880907630       -0.81920927962015
C            4.93930228203722       -2.14152163390133       -0.13109100784947
H            3.48182109899828        3.57135356043163       -0.36155641136049
H            5.65519989543821        4.04512458833535        0.69106762112326
H            7.08248655897361        2.17776136618824        1.42519068913707
H            6.37551247836750       -0.12632303914659        1.04453133240737
H            3.42624719196330       -5.84237045730776        0.54877512367921
H            4.77473644420363       -7.86809832016535        0.88994462910435
H            7.23289377196525       -7.74832721359349        0.76985035884335
H            8.34151311571849       -5.61936093237565        0.29801407350475
H            8.17762089618621       -3.22909728401190       -0.29400120588176
H            7.92469074808211       -1.14083825872604       -1.01142732307786
