35
 energy: -7.502285799419 gnorm: 0.000581986611 xtb: 6.5.0 (97a52f5)
O            1.03985985325924       -0.04558911009905       -0.83278759227791
C            2.21432591722189        0.04118298840614       -0.51303755160075
O            2.83053265871512        1.27310543019862       -0.51297297373695
C            4.12933294638109        1.38801682951618       -0.06121519416357
C            4.66397084076219        2.67186593330680        0.09111062576361
C            5.91215932015024        2.85643770820261        0.61969781923203
C            6.65645473713521        1.76154498788493        1.02767298129934
C            6.15919920142498        0.49405824044448        0.86926515613748
C            4.90987800032803        0.26808133304644        0.27760626133136
C            4.33927630171047       -1.05284627768193        0.08108509972938
C            2.98465129148767       -1.15604931882728       -0.15949619366217
C            2.33768968797071       -2.46076792189116       -0.05104650101638
O            1.12741265723357       -2.57331355814597       -0.17033082142419
O            3.10238815389574       -3.57490236296637        0.21758386401510
C            4.47631969262166       -3.49693084745634        0.25103967101844
C            5.13861035507883       -4.74302359032976        0.33059461046376
C            6.36905079018066       -5.19796970233781       -0.10380799486745
O            7.17197277427890       -4.58782322030081       -1.11842948008577
C            8.61533137670636       -4.35470962041251       -1.06506214357116
C            9.23503688707775       -3.12932163522627       -1.20527501131940
C            8.59107059845993       -1.91262522665461       -1.28843197256066
C            7.29037935760087       -1.58029992378210       -0.94993452946597
C            6.60115209433054       -2.21481871210438        0.07700897134461
C            7.29978241287878       -2.90864781839680        0.95154560244032
C            5.13490312414843       -2.25169653767609        0.17444380476003
H            4.05723798581200        3.51229752493024       -0.19854202553139
H            6.30734080050918        3.85242689203473        0.73925863226721
H            7.62568042225240        1.90856530792209        1.47627841648233
H            6.72787667987125       -0.34024437370499        1.24141711180275
H            6.77491418349658       -6.04572670460054        0.42604324990074
H            6.65046564058501       -3.94396424872646       -1.75593527800051
H            9.24728347058063       -5.20895936500137       -0.87528800474462
H           10.31193641806745       -3.10605613180530       -1.25654890597984
H            6.75760496888141       -0.88733375093896       -1.58125887899216
H            3.90349839903101        1.67459678312935       -5.94861082489055
