35
 energy: -7.749759054340 gnorm: 0.000810742650 xtb: 6.5.0 (97a52f5)
O            0.83318675312467       -0.22232386286299       -0.64695596823988
C            2.03464292821133       -0.09740803038973       -0.47375415249627
O            2.59842544813218        1.16080757634768       -0.47679305391419
C            3.93004186025747        1.31145801749830       -0.14256770936817
C            4.41779109039501        2.60299469985085        0.08495067608607
C            5.69557127953645        2.80378573572543        0.53137340176018
C            6.51784595273681        1.71695152575701        0.78167622364885
C            6.06799142861755        0.44450100571374        0.54063904130889
C            4.79106429837898        0.21094402737344        0.01677889075577
C            4.26590191694066       -1.11835243400890       -0.24874954778328
C            2.89139734753229       -1.27480788063417       -0.28973707128519
C            2.31766969042573       -2.61142611553784       -0.12788257978897
O            1.10880981769702       -2.78418644817207       -0.15592918165872
O            3.15760387354834       -3.68038314832346        0.10497833968644
C            4.51432335581254       -3.52959459113318       -0.06512250894175
C            5.32241178908039       -4.68492604288253        0.04953627189361
C            6.64845374901451       -4.64757836644142       -0.22459024624880
C            7.25044585789896       -3.46490672728578       -0.71376213596769
C            8.59477054573640       -3.45137735472589       -1.14095155370455
C            9.13102366580497       -2.35319402470902       -1.73589851074371
C            8.34579876386064       -1.20300344091749       -1.96116762161702
O            8.83841875748359       -0.08823984071027       -2.60390704592520
C            7.03388236039538       -1.20074253723831       -1.52256077668734
C            6.46798631306091       -2.28895505574978       -0.84391551338828
C            5.10198972871654       -2.29251873817650       -0.36770858652638
H            3.75226906475021        3.43347118928834       -0.07569679734051
H            6.05488999744890        3.80404342594153        0.71183439000412
H            7.51160890148541        1.87354679058161        1.16872704344630
H            6.69842252940679       -0.39409388296178        0.77920751032684
H            4.84769143000624       -5.60205863594860        0.35239779551375
H            7.24620764160929       -5.53815252323939       -0.13156226178914
H            9.19099160152267       -4.33806808579340       -1.00936188077070
H           10.15517580623357       -2.36200564706979       -2.06347693921205
H            9.76511627179351       -0.21931641652131       -2.87142208609537
H            6.43871818334518       -0.33503416264357       -1.74303585494012
