44
 energy: -9.736615955044 gnorm: 0.000169745463 xtb: 6.5.0 (97a52f5)
O            1.22591464843942        0.06853065850379       -1.99580540976304
C            2.33528878588316        0.16557956261913       -1.49201237771532
O            2.97431169528129        1.38195811829562       -1.35908662113159
C            4.23982424238723        1.43897471063570       -0.78045974733760
C            4.85642291990109        2.68805090006585       -0.68387707980912
C            6.10500935841148        2.82143528480883       -0.13206013050043
C            6.77342471511325        1.70701898021884        0.34148126552860
C            6.18801388779914        0.46645281073753        0.26061458863931
C            4.91782766708770        0.30301285691153       -0.29684377172634
C            4.26770972662503       -0.99014456888817       -0.41725012671422
C            4.85124996364177       -2.17122567262623        0.03189635727681
C            4.24034828018462       -3.41133440505926       -0.12008828006935
N            4.85416984845942       -4.60930492744667        0.35906701657921
C            4.15022794295423       -5.85503894040727        0.30839215684223
C            3.64947449536621       -6.38331412156593       -0.87044652536355
C            2.91399642242930       -7.55223161552220       -0.85966331611319
C            2.67888221214976       -8.20935793429520        0.32927320651925
C            3.19821540825384       -7.71650314267895        1.50940504686857
C            3.95669588100344       -6.55371424599789        1.51894934893894
O            4.55003204023114       -6.09854431956013        2.70138719217531
C            5.67145503954510       -5.27502482197616        2.55303166680345
C            6.60614319277232       -5.16938360084126        3.57421148250092
C            7.76669954077022       -4.44470031092293        3.39420130718241
C            8.01828041458219       -3.82910346801891        2.18663925948424
C            7.09190065734730       -3.90306517726652        1.16461510780257
C            5.89482234558791       -4.57824883588266        1.34503260875177
C            2.96914913171914       -3.43486670887036       -0.70827765805013
C            2.36897658097605       -2.28456213141098       -1.14322359908197
C            3.00168370860310       -1.05236428254396       -1.01552092944431
H            4.32701025496642        3.54654926359426       -1.05751909115282
H            6.56626306248643        3.79341917782748       -0.06918606160965
H            7.75565525805157        1.81280331976550        0.77190116085646
H            6.72520387444530       -0.38792578501500        0.62954544217744
H            5.79204455383478       -2.12016614674803        0.53728697131977
H            3.84759868258580       -5.87329609195292       -1.79706912259746
H            2.52221913145998       -7.94908291511093       -1.78156831975828
H            2.10040289493988       -9.11850217239244        0.33584091100315
H            3.04456736496938       -8.23698567424016        2.43776695372039
H            6.41877380486910       -5.68820615954634        4.49735963239732
H            8.48771858854083       -4.37913676293365        4.19237108291976
H            8.93946859580699       -3.29009942882636        2.03907192783375
H            7.30831087541957       -3.46298282852396        0.20678019449997
H            2.44223196113611       -4.36730488622738       -0.78875024303756
H            1.38983034299024       -2.31384356068835       -1.58994347763984
