30
 energy: -6.563751995525 gnorm: 0.000619400301 xtb: 6.5.0 (97a52f5)
O           -3.17941954007066        0.63403037278669       -0.56543984021061
C           -2.04381586391077        0.21134757108891       -0.41057199145452
O           -0.96174602798781        1.06837891618144       -0.37966223911958
C            0.30529696319898        0.56310238385062       -0.14396378063529
C            1.39483646826436        1.44011898977084       -0.09773806537752
C            2.66152183320375        0.97651213184444        0.13583503959216
C            2.88550019042116       -0.38060714463032        0.33075768043508
C            1.83839362628059       -1.26284224848453        0.29054345945770
C            0.53445005722064       -0.81107760934473        0.05453429919052
C           -0.57559425581645       -1.69128145212062       -0.00159647965833
C           -1.82575093107933       -1.23134692665436       -0.23488970331081
C           -2.95684842555169       -2.16191144372545       -0.31766655614037
C           -3.06883132865153       -3.33070077929713        0.41436659774875
C           -4.27943821280431       -3.93242874405023        0.04184526435033
C           -4.92686179305590       -5.11153939925743        0.45365594066675
C           -6.12966700761531       -5.42853568976786       -0.10957637967358
C           -6.71473291605377       -4.59872902919637       -1.08037384148363
C           -6.10386133654461       -3.44766645904732       -1.49139362909872
C           -4.86746207562490       -3.09230077779642       -0.93046031109418
O           -4.04762087942843       -2.01004650263181       -1.14792694431217
H            1.21100192970560        2.48904907860739       -0.24948496713809
H            3.48906509301883        1.66612361982952        0.16897716870199
H            3.88553008596200       -0.73805767976754        0.51339066330097
H            2.00923839729344       -2.31502421878268        0.43980368760168
H           -0.40936297922440       -2.74584540327282        0.12134852624463
H           -2.37543205227248       -3.70071062034991        1.14779178462054
H           -4.47140581459944       -5.73998843105759        1.19850606581752
H           -6.63999740120037       -6.32780476253132        0.19348474257373
H           -7.66462954342758       -4.87679785291675       -1.50669371962297
H           -6.54755625964895       -2.80693988927750       -2.23218247197206
