42
 energy: -9.204687247433 gnorm: 0.000702245577 xtb: 6.5.0 (97a52f5)
O           -2.90007854690037        0.48895225813356       -1.40708974743622
C           -1.84716320715081        0.09738565242773       -0.92629541212640
O           -0.74527537174976        0.92612906804249       -0.85480882950541
C            0.42771818480575        0.45725596045282       -0.29225759646816
C            1.54041476073864        1.30368974250079       -0.22187892334994
C            2.71813645727287        0.87178837143175        0.32483192400416
C            2.82767435356539       -0.42131058533344        0.82158442480076
C            1.75509571463972       -1.27122359366182        0.76717295940259
C            0.53947968853785       -0.85091278791377        0.21288024763640
C           -0.59156680741955       -1.70138290794057        0.13184032434559
C           -1.75894892641548       -1.28150222190792       -0.41283352313886
C           -2.91309709305724       -2.18966052568173       -0.50898701676964
C           -3.12461854095523       -3.19921401176285        0.43191024328047
C           -4.18678706851737       -4.06292595267403        0.32190118992410
C           -5.09215199396342       -3.96504773144487       -0.73647027893607
C           -6.23802921619238       -4.88162032656380       -0.85133013186291
C           -6.82433959623160       -5.39913842798154        0.25511499317721
C           -7.93077438566543       -6.28080554430473        0.16713136370388
C           -8.54990083742902       -6.82222946566576        1.30081274344233
C           -9.61670969282519       -7.67177531832911        1.17412640399807
C          -10.09602911260107       -8.00546685828130       -0.08676137093485
C           -9.50771831294880       -7.48714131453940       -1.20822127447906
C           -8.41685064911715       -6.61546062242341       -1.10985493368187
O           -7.84984970862530       -6.10776672368813       -2.26431595208833
C           -6.77382040226836       -5.24739882942712       -2.17510150837785
O           -6.25362463238106       -4.78379707903877       -3.17887643336685
C           -4.87877931916775       -2.95626592290337       -1.67408455285681
C           -3.82195039942612       -2.08972704036254       -1.56080893259044
H            1.44532963699850        2.30226263744146       -0.61015768155704
H            3.56596191790153        1.53569603140465        0.36978521789619
H            3.75885100484925       -0.75464113373916        1.24907585318691
H            1.83825826718876       -2.27355073981003        1.15046409593364
H           -0.49853637889830       -2.71137533885462        0.48589055950503
H           -2.45214302302889       -3.28867004214306        1.26703719580212
H           -4.31299154254998       -4.84385133430654        1.05119265148469
H           -6.46706627718648       -5.12241053299688        1.22971687293302
H           -8.17702710184978       -6.56269395042836        2.27657004742463
H          -10.08625169396587       -8.08267823455781        2.05258522599392
H          -10.93572970274391       -8.67463958298025       -0.18013304724721
H           -9.87142969037212       -7.73842106691838       -2.18881295360247
H           -5.55784339370207       -2.87264846086279       -2.50488817143404
H           -3.68400736118921       -1.30909551240384       -2.28881626605424
