52
 energy: -11.393632880793 gnorm: 0.000641229289 xtb: 6.5.0 (97a52f5)
O           -2.74390825497713        0.28340046592074       -1.74530934894063
C           -1.74538366467241       -0.02403537231628       -1.11069453472777
O           -0.67459778825709        0.84208134338242       -1.00247342156814
C            0.43594221825200        0.46919291732362       -0.26648122203163
C            1.51795787707713        1.35145501992491       -0.15968047761662
C            2.63133849164540        1.01463684175624        0.56122465227295
C            2.70488156359664       -0.21643645947745        1.20167036023261
C            1.66259388216061       -1.10048455451087        1.11362462966634
C            0.51307342743601       -0.77701073909414        0.38177347820890
C           -0.58398840108318       -1.66627400778608        0.26233952660173
C           -1.68971178707000       -1.34043611262008       -0.44923171638183
C           -2.80784598657031       -2.29050523868035       -0.57170368580340
C           -3.10257645966592       -3.19507547603262        0.45022764698333
C           -4.12595668332813       -4.10279655386196        0.32231621583478
C           -4.90324597580091       -4.15190797654953       -0.83443885753576
C           -5.99906832523236       -5.13284251475424       -0.97874548088142
C           -6.81843743299198       -5.46335146329903        0.10017204646654
C           -7.84378301394842       -6.36709242627548       -0.03972355924498
C           -8.09827382376630       -6.98642615885740       -1.26493072087171
C           -9.21902047399585       -7.92777008849840       -1.42505242689308
C          -10.35023963713440       -7.78255231679168       -0.69402370282446
C          -11.45015347303445       -8.66403846625327       -0.84125362440209
C          -12.62510060351589       -8.52631076490109       -0.09157011544996
C          -13.66954063698767       -9.39482140091580       -0.26608226091987
C          -13.57243064460110      -10.42472715036626       -1.19398321476316
C          -12.43376429984899      -10.57818863827076       -1.93735958895263
C          -11.34907506385437       -9.70685606010348       -1.78011213863786
O          -10.21244896896373       -9.89098428851100       -2.54694125390915
C           -9.13830251370541       -9.03574283023545       -2.39430098813278
O           -8.11660066801995       -9.18317332766194       -3.04909040077883
C           -7.26815757413162       -6.66307993368078       -2.33710950611921
C           -6.24545670418813       -5.75730942197416       -2.20076418830615
C           -4.61603998883615       -3.24377910101465       -1.85268880155011
C           -3.59532821894402       -2.33508128887673       -1.72108994170223
H            1.45208437358067        2.30132724779881       -0.65975173918016
H            3.45562717680101        1.70523096602038        0.63274071878596
H            3.58418596365920       -0.47419943120230        1.76843649780071
H            1.71713772469379       -2.05471202846295        1.60837434453705
H           -0.51278017154229       -2.63111065785052        0.72935287358463
H           -2.52819012034278       -3.16641822847259        1.35937336252272
H           -4.32565084084098       -4.80069691417107        1.11674343711642
H           -6.65027071977903       -4.98619063448886        1.04995272065363
H           -8.45184526975259       -6.61655924706506        0.81189482940097
H          -10.43932023351114       -6.96608421682281       -0.00155670691008
H          -12.69727758735083       -7.72790318020888        0.62644561018678
H          -14.56935914495438       -9.28016140018183        0.31539924547767
H          -14.39861324956608      -11.10355351960037       -1.32824340163344
H          -12.34947592693441      -11.37207550955978       -2.65803501153019
H           -7.43575528700941       -7.14878459641160       -3.28249241938716
H           -5.60991622518063       -5.53496358915816       -3.04020440055342
H           -5.21937653545943       -3.24764550568953       -2.74377542724501
H           -3.39577431958384       -1.63032601060691       -2.50931791097084
