42
 energy: -9.204958158921 gnorm: 0.000616560307 xtb: 6.5.0 (97a52f5)
O           -2.84096811859308        0.52065315458039       -1.15796049612191
C           -1.75665948060192        0.12797078081855       -0.75383471803412
O           -0.67719849235989        0.98142715695926       -0.64620768929924
C            0.52852168088579        0.49977676819056       -0.16828271582947
C            1.61923662979325        1.37052063918758       -0.05838788554604
C            2.82824083440661        0.92781343344083        0.40567956767433
C            2.99163980526022       -0.40066228316263        0.77827389452759
C            1.94189064464768       -1.27535609181645        0.68360071626695
C            0.69599054086218       -0.84442528219946        0.21181330912038
C           -0.41365162227712       -1.71938875685759        0.09268262406078
C           -1.60801941619186       -1.28523581541739       -0.37108678101353
C           -2.74645244500658       -2.21102620061430       -0.50353137805169
C           -2.96225630803753       -3.22246654899865        0.43140844285054
C           -4.01363642432235       -4.09915501383141        0.28815317251140
C           -4.87141061416846       -3.98726446166808       -0.78248688621210
C           -4.69503230875008       -2.98407088370659       -1.73460823394216
C           -5.61674690314502       -2.85167487049482       -2.87638974801361
C           -6.93706800829068       -3.11018247905244       -2.73486115854064
C           -7.83646819260849       -2.98730506256056       -3.82438538630837
C           -9.20619473633896       -3.24837241165677       -3.69756072035958
C          -10.04408539974079       -3.11317360881931       -4.77257061030388
C           -9.53967274501681       -2.71356789798703       -6.00401048183805
C           -8.20428306198919       -2.45233016733097       -6.15043973457302
C           -7.32339489859748       -2.58167340032798       -5.07013894787039
O           -5.97987854172358       -2.30769911457969       -5.25434570373619
C           -5.10628692289948       -2.43859232449105       -4.19374661653096
O           -3.91044773818573       -2.22395453275875       -4.32411659850446
C           -3.62682530689366       -2.11014254009263       -1.57374680106507
H            1.48302335002578        2.39688301655162       -0.34986345947353
H            3.65830264921386        1.61103889937235        0.48179270709853
H            3.94665543569426       -0.74186124716473        1.14241580010801
H            2.06619212869501       -2.30496915254516        0.97128182810481
H           -0.28686969248966       -2.75316665184292        0.35678327761825
H           -2.30584880386241       -3.30516028236587        1.28008579651938
H           -4.16448880496026       -4.87877420746463        1.01689764210489
H           -5.67794004901433       -4.68981660880802       -0.89985321949514
H           -7.32541170028969       -3.39497188234572       -1.77429768207183
H           -9.59477748863918       -3.55654288487446       -2.74234738982986
H          -11.09694652593100       -3.31584736438984       -4.66490981074685
H          -10.20429601448586       -2.60808373730092       -6.84585925974528
H           -7.80494581319509       -2.14077789554187       -7.09934722904593
H           -3.47444112086912       -1.33256218603653       -2.30283143646594
