30
 energy: -6.671709161767 gnorm: 0.000633825441 xtb: 6.5.0 (97a52f5)
O           -3.02933172365985        0.47070465866432       -1.31594532804756
C           -1.94544419012271        0.10393470112240       -0.88562563909637
O           -0.86289876893374        0.96081684549304       -0.84332112868978
C            0.35241512776728        0.50848869093783       -0.35268939581926
C            1.44601987733597        1.37916077870736       -0.31956744931916
C            2.66133458613834        0.96431029334171        0.15814034413751
C            2.82634045410419       -0.33472713547601        0.61984681943382
C            1.77239064063271       -1.21028595452354        0.60015444616600
C            0.52267893426937       -0.80748159354667        0.11607262708696
C           -0.59188664430040       -1.68169059607768        0.07368484873501
C           -1.78860171329455       -1.27714368627188       -0.40379138284668
C           -2.89746338594261       -2.22820455684526       -0.43266549771885
C           -4.17682241081881       -1.97834251755307       -0.91213982808196
N           -4.89654589639607       -3.13047869951414       -0.76452528210454
C           -6.20068315002974       -3.52261890309537       -1.04940633463873
C           -6.60220690400976       -4.78236461050001       -0.77069942249780
C           -5.70939731740889       -5.71188263952453       -0.18819331274565
C           -4.43131348242485       -5.36213800584969        0.10164200742161
C           -4.00386985748750       -4.04711920673777       -0.18883183451894
N           -2.80464066059707       -3.50208261696514        0.00854748248665
H            1.30910199168467        2.38340767326926       -0.67967324998947
H            3.49390924037871        1.64837714792689        0.17571630300865
H            3.78551527649641       -0.65358488526632        0.99329118036479
H            1.89694655593842       -2.21833684463385        0.95628988271905
H           -0.48309693768482       -2.69094829133644        0.42511016888497
H           -4.53367468290679       -1.04956476519857       -1.32121046726227
H           -6.86440364164242       -2.80197989963667       -1.49293464164471
H           -7.61125117609609       -5.08685313002083       -0.99386421922523
H           -6.05314815982567       -6.71053414220908        0.02557020562569
H           -3.74102198116335       -6.05687810868039        0.54563809817616
