111
 energy: -23.247569964938 gnorm: 0.000520024079 xtb: 6.5.0 (97a52f5)
C            1.06882181491913        0.03714489505577       -0.18235193232315
C            2.56200618346378       -0.29603970820509       -0.00527580766681
C            2.75915635103010       -1.80262598898723       -0.26704223772156
C            3.39572261608326        0.48602505451961       -1.03842848966175
C            3.00369385737292        0.09892955487630        1.41292961663403
C            2.93330437517715        1.44789171147860        1.80387122598476
C            3.30717060437163        1.86950594805585        3.05584794915338
C            3.76533895859057        0.92750199147520        3.97213210769804
C            3.84854917765059       -0.42230018423539        3.60092507071778
C            3.46524313394820       -0.83289944550431        2.32449101373891
C            4.37170407614213       -1.14707936116428        4.73489036831287
C            4.64570896908491       -2.49911937711757        4.93550089724588
C            5.13815464487616       -2.92971633644049        6.15290071723545
C            5.43118727885179       -4.42469986183658        6.35613538940011
C            4.12949705176013       -5.22708358065970        6.16941042960896
C            6.47674695485591       -4.88365476046586        5.32190780429849
C            5.98357358565643       -4.71610520831759        7.76544885521790
C            5.34776197131744       -1.98036624112326        7.17025489182367
C            5.08332542330213       -0.64481323571989        6.98979751733943
C            4.59532665062842       -0.21566868290410        5.75912065625343
N            4.22371138173233        1.06554610980807        5.29965774130873
C            4.30990379656679        2.29314738663923        6.03979841363621
C            3.22430713231653        3.15933197865046        6.10125849469441
C            3.31376854759254        4.34652000146201        6.78889690253544
C            4.49105314127682        4.70670905732953        7.43842802647901
C            4.58580908795711        5.93667818086734        8.11855903463944
C            4.65805072528102        7.02673434141388        8.66512777423388
C            4.72880022879775        8.31118641745670        9.24053564339394
C            4.66369538694882        9.44982091987153        8.41289214561209
C            4.71734842337602       10.71969513824826        8.92860850900466
C            4.84370019407358       10.87611907912414       10.30938936635600
C            4.91048297094990       12.04467110373623       11.14935498748235
C            4.88692292178125       13.40991663880946       10.86154909418907
C            4.98260830173152       14.30256070152535       11.89868139055609
C            5.10649418705119       13.87366158059048       13.23537468857248
C            5.20781571394430       14.82488796368726       14.26955327732820
C            5.29338538929092       15.67734142510449       15.14076026557969
C            5.38834930927521       16.68907839616088       16.11499845900167
C            4.50375286751040       17.76323803954910       16.11012381450580
C            4.60032044589743       18.76091807292496       17.05049541254227
C            5.59190668904916       18.73294561249006       18.03381949374445
C            5.64306098675298       19.80000856039830       19.01871172922659
C            6.65780332637489       20.11564596739895       19.85392194872532
C            6.48570140417602       21.15017672511032       20.77439082309839
N            6.33943773428472       22.00312433315849       21.54967710745393
C            7.98743239578365       19.43414378749490       19.82107220882012
O            8.66718707283505       19.48868472736917       18.81083549401285
O            8.36053458781307       18.76357398685590       20.95078455679303
C            6.46804673905568       17.64572760950399       18.03995303426605
C            6.37033663377798       16.64788838829564       17.09987467423145
C            5.12951774685750       12.51925203305306       13.51837570009034
C            5.02489035474463       11.60000538789836       12.47728725924525
N            5.03419187268410       10.18976761858001       12.48385495366909
C            5.15749746645777        9.35136938188264       13.64396128824603
C            6.09776250393898        8.32871143367661       13.68026683907411
C            6.21832138424648        7.53040953018510       14.79454439176295
C            5.40635142917375        7.73658358936202       15.89170299819886
C            5.55416545473475        6.83756499324001       17.11746990999772
F            5.24822240672447        5.57652600606999       16.75850650826788
F            6.82965680707102        6.90435577257545       17.54364946158364
F            4.71830849157106        7.26173324635110       18.08431315493680
C            4.46838033431048        8.74981040850113       15.86352564092273
C            4.34294173664420        9.55126582771886       14.75202148185804
C            4.92093098216195        9.75142715377383       11.14824614533889
C            4.85667206246576        8.46846932740281       10.60941442989074
C            5.57420653025478        3.83432863687769        7.38091851476084
C            5.48495155474548        2.64651477060055        6.69366221395634
H            0.72105397750521       -0.24698353623766       -1.17465743683594
H            0.88345021981780        1.10253049721455       -0.05667034913830
H            0.46663772056349       -0.49610286980781        0.55208837632140
H            2.45134410633302       -2.06196411709763       -1.27920660005304
H            2.16381012714624       -2.40201188125144        0.42031102993559
H            3.80550201258150       -2.08523022974091       -0.15849187687924
H            3.12309646105785        0.20186729872970       -2.05395260812412
H            4.45806750698026        0.28571340862206       -0.90557098320860
H            3.24284161634837        1.55953024073289       -0.94287661230932
H            2.57329936494666        2.17470708579366        1.09718657137680
H            3.26042786898628        2.90692533097582        3.33355764017552
H            3.53929198630269       -1.87329121063014        2.07225987320043
H            4.46642493673736       -3.19446797407405        4.13719163002171
H            3.72631833182119       -5.09994150713956        5.16618733908164
H            3.37083937613602       -4.89916010225235        6.87878061276049
H            4.30145415841261       -6.29106337094070        6.32658574105973
H            6.11242519953965       -4.75258035305970        4.30446541456332
H            6.71974743476524       -5.93705726102367        5.45471647611140
H            7.39647941594783       -4.30935531388651        5.42469372037811
H            5.26743106834429       -4.43040371934647        8.53472036580829
H            6.91528450996056       -4.17972146034259        7.94006071299666
H            6.18870583621461       -5.77899032188048        7.88690119009052
H            5.72460304322059       -2.30314575620223        8.12385576968969
H            5.23596284108233        0.06713458004495        7.78071141372323
H            2.30860528224278        2.88073974082378        5.60988508763367
H            2.47100818716020        5.01519958325710        6.82913257982818
H            4.56516901969841        9.30595741671819        7.35062290275655
H            4.66159481210256       11.58528060358984        8.29289197839873
H            4.79732180681512       13.74251711029830        9.84281774141648
H            4.96710900999449       15.36028716874234       11.69945242972097
H            3.73922872926572       17.80344806927170       15.35316361114708
H            3.90795547049183       19.58512282600432       17.03043746318074
H            4.75628365014015       20.40664977389456       19.09480187263872
H            7.68026488833365       18.84708586117828       21.64632309396873
H            7.23084109544574       17.58886021496535       18.79515081146375
H            7.05859168178132       15.82015057903090       17.11369445516485
H            5.23468046260949       12.17870509952710       14.53127668265915
H            6.74032300217527        8.18078887245993       12.83015952956303
H            6.94715703444023        6.73853404161817       14.82767060526089
H            3.83836037279473        8.90047399933240       16.72332964950832
H            3.60408508533095       10.33271622952696       14.72270380180912
H            4.89648386350039        7.60979051169972       11.25298749680695
H            6.48976354489186        4.10691931936566        7.87723552406577
H            6.33153335903940        1.98522099006428        6.63459382502231
