26
 energy: -5.562182613684 gnorm: 0.000840165228 xtb: 6.5.0 (97a52f5)
O            3.04509637784644       -0.55270428702340       -1.08285379641525
C            1.93506791452923       -0.18807772992316       -0.72248060697883
O            0.87660095914458       -1.05795305398517       -0.72676223558170
C           -0.33269515424579       -0.57452916649449       -0.29722652605306
C           -1.44641141560163       -1.42126362993792       -0.28113369066925
C           -2.66790927073520       -0.96770922653429        0.13784306765540
C           -2.81433802496280        0.34679094798075        0.55452129415820
C           -1.73674374200198        1.19361691757617        0.54846584919595
C           -0.47727390676890        0.75820617240249        0.12605799379707
N            0.57277986137219        1.63515168069382        0.13142817540039
C            1.73060444527495        1.19727464412267       -0.27606338807708
C            2.83379233296946        2.16097018631390       -0.26594000971542
C            4.11063146388796        1.87840691815569       -0.75830735330354
C            5.10725900209645        2.82240995071490       -0.73716701569667
C            4.85621413886307        4.08255195456122       -0.21915925752084
Cl           6.10474403878591        5.26954949376990       -0.19453262462912
C            3.59868978090833        4.38659659247454        0.27633629738130
C            2.60506735958789        3.43909205086246        0.25059666556918
H           -1.31756780219457       -2.43827615142177       -0.60729310005138
H           -3.51712817355685       -1.63144834997024        0.14371911662794
H           -3.77743324778176        0.70206407355898        0.88244599618169
H           -1.84260166193360        2.21515801392737        0.86979422971481
H            4.31087896281709        0.90154590179449       -1.15824908786774
H            6.08923741419025        2.60082653150179       -1.12013739652381
H            3.41713704665221        5.37014753415834        0.67562607610551
H            1.62579130085845        3.67085203072333        0.63126132729698
