43
 energy: -7.940036432481 gnorm: 0.000517662553 xtb: 6.5.0 (97a52f5)
O            2.49035560485158       -0.24824293673424       -0.27013610828571
C            1.07323725807253       -0.15706808923036       -0.55537002243396
C            0.86796029380761       -0.25931909717188       -2.05682763898729
C            1.10494632141432       -1.37566695807908       -2.78747829585091
C            0.85855442088719       -1.22278000446682       -4.17893120264316
C            0.43262378675788        0.02486856459965       -4.53139027377452
C            0.11280182534882        0.47487684861874       -5.86851201083595
C            0.19114415345105       -0.27098977789883       -7.01044460015812
C           -0.17772492849360        0.43930298366697       -8.18600893071646
C           -0.53941932311600        1.71969944811693       -7.94953328343310
S           -0.43677107070433        2.08711008259403       -6.26353689853676
S            0.33242219120526        1.02470826948666       -3.10519204972513
C            0.53543565834406        1.19656442406090        0.00434396273362
C           -0.99918013761497        1.31827245278121       -0.04780145495478
C           -1.76467529608359        0.10279831279729        0.55175024851980
C           -1.94834615277272        0.17288429069812        2.05743394143610
C           -3.23127582264666        0.17510656065820        2.58981722063926
C           -3.43570457945559        0.22944393203571        3.95351604275026
C           -2.35785880157436        0.28087848543271        4.81130437228348
C           -1.07747373341889        0.27675060505674        4.30036081331633
C           -0.87647418014414        0.22238902166089        2.93578203825610
C           -1.17473693606783       -1.24950297261331        0.06243203024469
C            0.35357771909885       -1.32574242948716        0.18375579208960
H            2.96252313918707        0.44920641589846       -0.76590876795755
H            1.46645576384603       -2.29496795572758       -2.35318073457991
H            1.00193652912379       -2.01949873184434       -4.89208845890920
H            0.50895053410290       -1.30189084931968       -7.02132364466405
H           -0.16622469860757       -0.00507931442771       -9.17099444403594
H           -0.85086554322756        2.42724782416071       -8.69479494241610
H            0.99764865447811        2.00819214210628       -0.56856625432311
H            0.90180569703396        1.32751066987631        1.02537796434427
H           -1.31225923649179        1.47085577881723       -1.08743133417928
H           -1.31424877628436        2.22452767369281        0.48509677282921
H           -2.78672413877901        0.15577472675290        0.13392419005552
H           -4.07724898720015        0.13169354434110        1.92522463798614
H           -4.43875532517447        0.23062012650151        4.34805721117870
H           -2.51513554391210        0.32259233258560        5.87688936922508
H           -0.23140618182073        0.31405814036591        4.96715503475452
H            0.12721549942299        0.21466585253327        2.55427646120714
H           -1.46068209312032       -1.42036158812021       -0.98264023312051
H           -1.63652110880311       -2.06654189517604        0.63153178152663
H            0.72962272358112       -2.27602091898228       -0.20971931151522
H            0.65823482149845       -1.31682599061602        1.23330101066104
