27
 energy: -4.899248089558 gnorm: 0.000454092095 xtb: 6.5.0 (97a52f5)
O            1.73286472966860        0.14753609457793        0.54379198551745
C            0.69859972124746       -0.02546772491269       -0.44180342331336
C            1.24800755112150       -0.24709652673176       -1.83220195229026
C            1.57024383580456       -1.44885594081293       -2.36767010866942
C            2.07596282123818       -1.36960225013118       -3.69341341460190
C            2.15146436789245       -0.09689811723251       -4.18112070948596
C            2.62222639323666        0.29057710412239       -5.49259081914704
C            3.00089410144480       -0.55499222639577       -6.49646262485703
C            3.42123393061412        0.11129077682281       -7.68025008130735
C            3.36732844157009        1.45812948485980       -7.58695806568878
S            2.79092790988790        1.94476855331291       -6.03186327511956
S            1.58567225018631        1.02381732850225       -2.96818817171082
C           -0.39508824749629       -1.05158607997093       -0.00403134697907
C           -1.26525695296963        0.12938856631385        0.46897387773756
C           -0.38745479477717        1.09237827175077       -0.35407612821655
H            2.33613382808237       -0.62079857433764        0.51477028619727
H            1.45153943154249       -2.37936223865381       -1.83394010956235
H            2.37338025494978       -2.23729089036875       -4.26123468243493
H            2.98096001714411       -1.62957002715876       -6.40276482075556
H            3.75431288441640       -0.41224504787535       -8.56488464476035
H            3.64292875665127        2.14709198846990       -8.36302728208324
H           -0.06118806861385       -1.72550494497642        0.79412722492811
H           -0.81643198135627       -1.61099723183535       -0.84812303665893
H           -1.20535668342551        0.30602011589925        1.55150781854155
H           -2.31517406579870        0.08018588507420        0.14559938850569
H           -0.03862706161713        1.97952190731502        0.18834008789826
H           -0.80117337064441        1.35943174437366       -1.33421597168445
