30
 energy: -5.319152871732 gnorm: 0.000848371647 xtb: 6.5.0 (97a52f5)
O           -1.80137859836171       -0.10702296467649        0.69548075144259
C           -0.93917766196696        0.03691887232808       -0.45125001598855
C           -1.76957703554416        0.19695039614069       -1.70836888927424
C           -2.27824729725772        1.36521426303073       -2.17038879535342
C           -3.04643662984524        1.23113852019425       -3.35858670047642
C           -3.13566645805552       -0.05128990639300       -3.81707655810996
C           -3.84838062299068       -0.49297377143220       -4.99609871968659
C           -4.53557862016335        0.30088229977637       -5.86987042842938
C           -5.14325585325468       -0.41317828525429       -6.93888389540603
C           -4.92536203773957       -1.74570993400882       -6.88791604286983
S           -3.95795955154242       -2.15823334730250       -5.51657072477860
S           -2.24762965553904       -1.11032361666704       -2.75159094150638
C            0.03768241477707        1.23656841890420       -0.23828830727743
C            1.27362262378438        0.67374848737912        0.49096757694780
C            1.25984760423723       -0.86382461669486        0.29347647088525
C            0.00291505146096       -1.20472221593422       -0.53270560374243
H           -2.41478596380282        0.65329747487677        0.73680033093927
H           -2.12216869335499        2.31118181996024       -1.67492090504842
H           -3.51729093812668        2.06714599456593       -3.85152297578621
H           -4.60992705085574        1.37120606819321       -5.75775295397145
H           -5.72242196558194        0.06570396421526       -7.71522428646783
H           -5.29361056350267       -2.46754234358108       -7.59243627048774
H           -0.45138029259144        2.03143016547846        0.33259155510757
H            0.31161474488648        1.65965076985195       -1.20995036296167
H            1.23380917663639        0.92437797536380        1.55811407498998
H            2.19977967280825        1.12093021735048        0.10856508078129
H            1.23163990411252       -1.37608476985108        1.26306849023653
H            2.17137369863143       -1.21330218604555       -0.20733119646044
H           -0.51719553592699       -2.08840315703882       -0.15074867052903
H            0.25474613467065       -1.40513459273018       -1.57889108671814
