33
 energy: -5.755781519188 gnorm: 0.000393124009 xtb: 6.5.0 (97a52f5)
O            2.32284618032030        0.00424205908735       -0.10788678316016
C            0.91438676178904       -0.03608013646013       -0.43669917019566
C            0.76281781502403       -0.19200298818308       -1.93999118037507
C            0.86633788590520       -1.35646453221015       -2.62630283685306
C            0.69254779591010       -1.21929230213157       -4.03013613125673
C            0.46439115950347        0.06316842626815       -4.43678499653724
C            0.25139332348076        0.50425556298557       -5.79800860370034
C            0.15744244306181       -0.29777293792551       -6.89999629710096
C           -0.05180195048277        0.41487810757678       -8.11261961057691
C           -0.11611891953785        1.75421331080293       -7.94458212014960
S            0.07493684085368        2.17590257577809       -6.27910335525418
S            0.46840431755302        1.11875449222993       -3.04763328056675
C            0.23651269398036        1.28115995778434        0.05989652917609
C           -1.29566904832757        1.24586990064349       -0.08762988933694
C           -1.90398147700777        0.03390258932094        0.64026018231856
C           -1.26031344924221       -1.27580800514848        0.15300607845344
C            0.26601418636535       -1.23368728114112        0.32792318799552
H            2.74979895950223        0.71981388026728       -0.61845606896176
H            1.07229164163022       -2.30409818169938       -2.15359560270834
H            0.74108063769643       -2.05349871585347       -4.71246861839884
H            0.23089949217690       -1.37313682763785       -6.85495947623769
H           -0.14899705475044       -0.07061003118753       -9.07317079231654
H           -0.26538449213236        2.47279832834074       -8.72829832248432
H            0.66269985824563        2.12921043916699       -0.48657522153172
H            0.50897664634330        1.43545972669021        1.10843221865032
H           -1.55708179865729        1.19728207641040       -1.15154831851272
H           -1.74032348189808        2.18139313466585        0.27914784101451
H           -2.99428256482421        0.00505697501851        0.50632790984513
H           -1.74354369375145        0.13910360495779        1.72012387560413
H           -1.49985277907382       -1.42433443646433       -0.90688981753431
H           -1.68918483612173       -2.14220633235640        0.67518092393924
H            0.73473566303453       -2.16947808816734        0.00774758736094
H            0.51579124343581       -1.13232435142590        1.38869015939088
