40
 energy: -8.019096904664 gnorm: 0.000430188034 xtb: 6.5.0 (97a52f5)
O            0.99802448671845        1.25523397926981       -1.23690891727643
C            2.08552139133248        0.58018387870456       -0.62716010676379
C            2.84658953838818       -0.27132855614209       -1.62284431997366
S            4.22631864266636       -1.11771744478587       -0.88501614178870
C            5.02690759844080       -1.61876842476832       -2.38195716867190
C            5.95518474169732       -0.75150350666126       -2.91546635168940
C            6.61443178620977       -1.07982981831912       -4.08222448341609
C            6.34217176638221       -2.27140001319406       -4.69986073356571
C            5.40389340987122       -3.16035311077393       -4.16577196392339
N            4.76316611665495       -2.79614613309245       -3.00691493133635
B            3.70955021228572       -3.69224952906367       -2.34602530286169
F            2.48030861048188       -3.05596525357830       -2.35245453990598
F            4.11193115436942       -4.03710191896813       -1.06619119366847
N            3.59128998952586       -4.95909510249759       -3.16531711740072
C            4.32281921981328       -5.14920415366847       -4.30088398048888
C            3.93179800243364       -6.46531811776692       -4.81097850825136
C            4.27074050358274       -7.26544601785038       -5.88706406189086
C            3.64402717643955       -8.50992777207239       -6.02592785452067
C            2.69958554089776       -8.96975962562421       -5.12890940897305
C            2.32607755484275       -8.18423301636215       -4.01505231318615
C            1.39050674685377       -8.47237338607098       -2.99418621361374
C            1.15906204670391       -7.56775339536536       -1.97275182886200
C            1.82331702259713       -6.34134830692667       -1.89119297166538
C            2.74587413945957       -6.02445416572040       -2.87308720219419
C            2.97124825766711       -6.95293557788855       -3.90852744801925
N            5.20602706753591       -4.32963269176433       -4.84007982997132
H            0.50546659014344        1.79973505374249       -0.59286962157776
H            1.70410433066323       -0.04776519202309        0.18965824695164
H            2.75846292015986        1.32258835779379       -0.17680799395228
H            3.20852470667373        0.34924845049712       -2.44437051996227
H            2.17806701012211       -1.01371169118873       -2.06316607837424
H            6.15901764037693        0.17948180554174       -2.41269962126155
H            7.34103406916577       -0.40377648607730       -4.50213270933847
H            6.85061220021440       -2.54657001983421       -5.60729896285640
H            5.00402812300482       -6.92618023793213       -6.59660930401713
H            3.91046158624886       -9.13063687700954       -6.86533702212625
H            2.23762411897888       -9.93135263486513       -5.26675030892364
H            0.85983644288066       -9.40743609356291       -3.02433990183446
H            0.44017501550129       -7.81684592218774       -1.20980338918346
H            1.63606252202746       -5.64631133193581       -1.09239791966039
