36
 energy: -7.205585203368 gnorm: 0.000594427656 xtb: 6.5.0 (97a52f5)
O            2.04045164076422       -0.44677765984303       -1.40812825021374
C            2.59973824936379       -0.16629536539902       -0.13329825756272
C            2.78625670458264       -1.39286019462330        0.69954123127765
C            2.48603352316127       -2.62955965172261        0.18522882045292
C            2.64533035981844       -3.78942754955942        0.93799510318168
N            2.32718482251470       -5.01886796088662        0.39541478548853
N            2.39990778826497       -6.05368607384836        1.06702307570868
C            2.08992316517439       -7.29329248095687        0.54998180438145
C            1.92381646193748       -8.38315507769852        1.40016957593207
C            1.60280392440209       -9.62031187906127        0.90184586023742
C            1.43637616539911       -9.82248021180954       -0.46796890892720
C            1.09227059298101      -11.14347726833083       -0.97740340672816
C            0.93993336962041      -11.50882182233653       -2.28392839259036
C            0.59974467617362      -12.87725143622582       -2.46350961662309
C            0.48916145770908      -13.56223446618258       -1.30477645615905
S            0.80602695285398      -12.53238321350719        0.04174415130839
C            1.60706450545530       -8.72931361640567       -1.31633543149700
C            1.93122440595269       -7.48158909065706       -0.82993841163808
F            2.11845691073764       -6.45440333949692       -1.68440546037326
C            3.12389579383499       -3.67898861201509        2.23969311159779
C            3.43327522131886       -2.45379609387418        2.77037671785695
C            3.27306951903506       -1.28392043177079        2.01783450547154
O            3.57504051453239       -0.03996905038064        2.52874389585201
H            1.92267069531515        0.36724170505294       -1.93473013397370
H            1.94298216127529        0.53408787901050        0.39766175660727
H            3.56904612169550        0.32887002449686       -0.27080980621984
H            2.11468815234992       -2.70104411412447       -0.82054530000641
H            2.04736174793943       -8.23487164853816        2.45875907457405
H            1.47341208833868      -10.45400019679200        1.56888405456056
H            1.06776408094386      -10.82805942150034       -3.11055119187638
H            0.44503020120107      -13.32369391488715       -3.43534961147579
H            0.23978230899226      -14.60272116339766       -1.21594454356415
H            1.48686755078228       -8.84285890983469       -2.37660326354514
H            3.24663165003939       -4.57550691261799        2.82083850500078
H            3.80312005008860       -2.38151944362993        3.77716760225720
H            3.89755646545245       -0.11734133665022        3.44625281122571
