55
 energy: -11.979676539617 gnorm: 0.000544689801 xtb: 6.5.0 (97a52f5)
O            2.61633239203042       -1.03116869356861        0.43167624764014
C            2.71724652222206        0.35470420420737        0.13944668789948
C            2.98960534585139        1.18592629192644        1.35100339679615
C            3.39921038788476        0.59164867059192        2.51810759952857
C            3.67503527199390        1.34046558463322        3.65977587095491
N            4.08898139046508        0.71978060353458        4.82070270983004
N            4.30934539613715        1.38019013508206        5.84892857059420
C            4.74241308614866        0.77577652519058        7.01008704307994
C            4.93260937783613       -0.59967459506783        7.06744131484477
C            5.36690819958713       -1.20378084646636        8.22221744246705
C            5.62679289144014       -0.44888917514470        9.36239170130490
C            6.07032448509855       -1.06197413769864       10.54686548354705
C            6.44930356523377       -1.58755643924520       11.58380757971758
C            6.87520376341626       -2.17103939307311       12.78690036373246
C            6.82153290834016       -3.55472628637092       12.93805643868611
C            7.22088506124636       -4.17018718666822       14.10081726036039
C            7.69694210374675       -3.42178054268677       15.17963496761047
C            8.11529675678905       -4.02961376480506       16.40260425960182
C            8.57069336923055       -3.28614297857450       17.43571452709128
C            8.65134877591298       -1.86234711687044       17.34346353997225
C            9.11628276821755       -1.07174079349328       18.39549825434199
C            9.18123036221096        0.30023093805349       18.27163583921851
C            8.78887236827974        0.92231627788308       17.10514262810745
C            8.31592242417122        0.17782817392911       16.02344973805668
C            7.89888391105293        0.78662376125609       14.80017168936127
C            7.44095649012136        0.04249420122664       13.76899481331846
C            7.35444563813647       -1.38142954180532       13.85424246871908
C            7.76416249114467       -2.01419608986116       15.05398111151037
C            8.24542712548418       -1.23086742209632       16.14273991971627
C            5.43608548170918        0.92733221511253        9.30550424299744
C            5.00173369567258        1.54723931902006        8.15271234486768
F            4.82965162933424        2.88957363730128        8.12385036859057
C            3.52731110625056        2.72354285471133        3.60134612886991
C            3.12298820356549        3.33671232835962        2.44495492698905
C            2.84650449723335        2.58812074924302        1.29306118180410
O            2.44159094351019        3.18230561820493        0.11890109712246
H            2.43188529889756       -1.55314278395928       -0.37409130308580
H            1.78146483047127        0.68971725528084       -0.32506586252231
H            3.52063694099786        0.50672905750738       -0.59174584816136
H            3.50007830623367       -0.47733886526174        2.55197649275053
H            4.73246995713232       -1.18265627002880        6.18610388094455
H            5.51125411225729       -2.26979721540943        8.25761029023616
H            6.45469409185656       -4.14690812967174       12.11713687080026
H            7.16825887537479       -5.24127372256763       14.19075159609082
H            8.06125131784601       -5.10085281404737       16.48928159750063
H            8.88123275168030       -3.76130512169323       18.34985572688824
H            9.42501539280217       -1.54706868176548       19.31030795395291
H            9.54302359848481        0.89291800033216       19.09567113297947
H            8.84403574134746        1.99357132882106       17.01871348624368
H            7.95521556965433        1.85761383098462       14.71261962310712
H            7.13139193907659        0.52017676338426       12.85627824624312
H            5.62983542041676        1.52766106244739       10.17504976650516
H            3.73977869652420        3.29947572817368        4.48458808665650
H            3.01415077004290        4.40575131804300        2.41222145486975
H            2.38628620224802        4.15073217342328        0.23123704914832
