51
 energy: -10.696458548035 gnorm: 0.000707009541 xtb: 6.5.0 (97a52f5)
O            3.16031418906766       -0.71613697260353        0.57911361779084
C            2.91496266964473        0.44569173564116       -0.20085689008249
C            2.71666436746574        0.13991224223015       -1.64981508269233
C            3.17292307863080       -1.04323583463373       -2.17303833908850
C            3.03349942339739       -1.34649624036465       -3.52611167772140
N            3.51370194783554       -2.55000673286613       -4.02368909466038
N            4.11410951798207       -2.67640822099288       -5.10940028265046
C            4.63303266297271       -1.62072844869910       -5.84025791416516
C            4.29956566583887       -1.44345841202317       -7.18170795771926
C            4.76169614427074       -0.35939907088464       -7.88102087028745
C            5.58301237707223        0.59284200579719       -7.26740246513586
C            6.05684775744634        1.78711805218938       -8.00858247743752
C            7.44289521156506        1.99346241339483       -8.23092542239849
C            8.41758655359794        1.06228399361448       -7.79449925483894
C            9.74224257080783        1.26996833527135       -8.01917533178223
C           10.17852662789745        2.41908885261813       -8.69630630763104
C            9.28088805986046        3.33500675390769       -9.14268197213715
C            7.88862640055294        3.15207210565042       -8.93164147290513
C            6.95742197391184        4.07466018302728       -9.40121380488738
C            5.59185683096041        3.89432019831592       -9.19778383655788
C            4.64333723845841        4.84030942370590       -9.66891243516303
C            3.31535614396997        4.66419466168650       -9.44640146165530
C            2.85712543191211        3.54091531670001       -8.74098840353671
C            3.73473730976397        2.61166040224321       -8.27795277363402
C            5.12879706149457        2.74441852388326       -8.49420869908489
C            5.93406058262740        0.39647973956528       -5.92913586185411
C            5.47836435842533       -0.68880987943648       -5.21848407398280
F            5.85473144898007       -0.87522193133946       -3.93376120497110
C            2.40086952926455       -0.41861829189141       -4.35198162833268
C            1.94377942525814        0.77053748584907       -3.85064424483386
C            2.09219861465012        1.08298173333684       -2.49287186149454
O            1.64599345284632        2.27459433688930       -1.96836120744718
H            3.29803591878098       -0.49023780645541        1.52039091519524
H            3.76126605757472        1.13536377876780       -0.08948975349936
H            2.02239364070596        0.95314789451646        0.18723916344163
H            3.65566566113034       -1.75063867951999       -1.52443750416011
H            3.65819890327834       -2.16672560927003       -7.65404997943434
H            4.49701599622799       -0.22811871488482       -8.91578365096335
H            8.09451194959400        0.17259376778776       -7.28420987437866
H           10.46619450570010        0.54848664208888       -7.67784192345189
H           11.23212251589545        2.56958961886726       -8.86488924130472
H            9.61569724607706        4.21340712774744       -9.66667495728287
H            7.29992680985816        4.94496686018685       -9.93065482437409
H            4.99442281822481        5.70518698910945      -10.20459876352418
H            2.60685815634905        5.39057527303213       -9.80911882970274
H            1.80083976922918        3.41900596612473       -8.56611678027092
H            3.37266360794566        1.76042082486021       -7.72994439568710
H            6.56083805847777        1.11399919425964       -5.43344420091738
H            2.28306268469654       -0.65106262772842       -5.39533367488465
H            1.46648564804808        1.48137427586927       -4.50091073129809
H            1.23997542378077        2.82122676483776       -2.66849030051737
