45
 energy: -9.314018029347 gnorm: 0.000886275977 xtb: 6.5.0 (97a52f5)
O            3.19054225730226       -1.02497913757901        1.01298517039331
C            3.33172980512356       -0.08187435370118       -0.03894669700295
C            2.82799385537700       -0.59653183176805       -1.34752347174051
C            2.78052531276720       -1.94766846326433       -1.58359732409114
C            2.34772775891516       -2.46192959295748       -2.80352625647714
N            2.32313707308790       -3.83567309754952       -3.00818750647008
N            2.67807919292348       -4.40421628957394       -4.05656797669700
C            3.36326794277386       -3.78554849778620       -5.09089364653643
C            2.88009179444453       -3.82981680401975       -6.39541091168123
C            3.52692106135837       -3.16384729589770       -7.40584589794748
C            4.68690382147500       -2.43048845334780       -7.15267754356469
C            5.36821449882651       -1.68899383415314       -8.23372331819114
C            6.78022779911801       -1.60960456073418       -8.27653898550398
C            7.41942182830114       -0.92588005953037       -9.26221913955675
C            6.68778238139051       -0.27065703372727      -10.27908740526999
C            7.31788266261225        0.44809720473591      -11.31772421322418
C            6.57895607676992        1.06678634460436      -12.28121758061073
C            5.18071844529733        0.99958323884833      -12.25664027833068
C            4.54018291446239        0.31488951202414      -11.26917751429327
C            5.27503139641205       -0.33973457834344      -10.25414369267097
C            4.64361350998334       -1.05607551415291       -9.21795511246356
C            5.18002179653591       -2.40876821143739       -5.84929472067197
C            4.54220655187189       -3.07482029285970       -4.82666713359780
F            5.05500978652646       -3.06431101333020       -3.57630917573973
C            1.94198514116951       -1.56880986223182       -3.79278023224715
C            1.98879808151785       -0.21657153984863       -3.57970160396599
C            2.43520164922223        0.30363097092157       -2.35879205473464
O            2.49641578995291        1.66008765969305       -2.12382875299536
H            3.51673804573958       -0.66654484614481        1.86192444153693
H            4.39170398791268        0.18565728568266       -0.13847261941234
H            2.78180110197392        0.83054148972083        0.22605810884203
H            3.08726107242495       -2.62514000420931       -0.80818288572081
H            1.98018112828702       -4.38509762876317       -6.59403215478489
H            3.14472033952307       -3.21183036433139       -8.41037479386525
H            7.35133295811444       -2.11692225414728       -7.51868123471332
H            8.49444067016324       -0.87806389209062       -9.28123735203692
H            8.39260381900756        0.50139635557205      -11.33807927320118
H            7.07115393296952        1.61269540196399      -13.06916106549097
H            4.61053621675146        1.49404647838436      -13.02589182142263
H            3.46530858604538        0.26350989040414      -11.25122011918731
H            3.57003779270761       -1.09111669569807       -9.19096586255565
H            6.06489003736153       -1.84576866891149       -5.61937142440482
H            1.59695964966539       -1.95986308612743       -4.73327462481628
H            1.68355399668733        0.46143788667939       -4.35625793202382
H            2.19178647914930        2.15422803900131       -2.90870641085872
