36
 energy: -7.202742716152 gnorm: 0.000680152739 xtb: 6.5.0 (97a52f5)
O            1.49306854931025       -0.42093997585967        1.73552001532750
C            2.65200685680692       -0.27076012872240        0.92938884021283
C            2.87334962725300       -1.43057246192819        0.01356894862517
C            2.12314796003891       -2.57149639096701        0.15013244805068
C            2.31398362374800       -3.67487628643813       -0.67714579996506
N            1.53296800176876       -4.81104466257307       -0.51093468337958
N            1.95861504497204       -5.97867013217280       -0.56293219698096
C            3.29864494132779       -6.33148916236673       -0.53802333119436
C            3.83515245477109       -7.16959004047340       -1.51095244731156
C            5.16610775686806       -7.50109095973458       -1.49065897989082
C            6.01542096536240       -7.01296154935738       -0.49725020733304
C            7.42586837405513       -7.37800384857694       -0.49560477194836
C            8.38908628319910       -6.94202553235418        0.36774777096987
C            9.67861545485449       -7.48301182371191        0.11301321582962
C            9.71024623115969       -8.32928522006520       -0.93870408847119
S            8.14395716489752       -8.47884550929637       -1.64497739447710
C            5.47033362900076       -6.18268478617329        0.48178850218440
C            4.13529233479706       -5.84548583014588        0.47611376568775
F            3.62248643930840       -5.06780705674323        1.45452993448207
C            3.28601778718866       -3.59837969059622       -1.67157682883517
C            4.04851052988867       -2.47011082543521       -1.82145218993351
C            3.86597912460623       -1.36312589565691       -0.98438251395981
O            4.62285987104037       -0.21879155154814       -1.11151651166959
H            1.37160021824121        0.34101667067534        2.33396899181109
H            3.52672237462843       -0.15213775596359        1.58090909891629
H            2.55470620982909        0.64631658143418        0.33478509558294
H            1.37447243260170       -2.61380373039545        0.91966471394528
H            3.18798888576770       -7.54665281119796       -2.28338733486741
H            5.57283586717130       -8.14640560346787       -2.24891078994143
H            8.19789285778190       -6.24716590772735        1.16975019772303
H           10.54802231072764       -7.23928665725320        0.70646730426605
H           10.57930870867565       -8.84705144185539       -1.29827046348023
H            6.08770372453139       -5.79459661483013        1.26906994670685
H            3.42949131845433       -4.44339667807640       -2.32113944420798
H            4.79942971659203       -2.42690448583129       -2.58958703229106
H            5.26311636877588       -0.31332224461880       -1.84142178018648
