55
 energy: -11.976663386530 gnorm: 0.000817508427 xtb: 6.5.0 (97a52f5)
O            0.51745685138987       -0.28521539582739        0.43053300627253
C            1.84181891827343        0.18575685051905        0.63703761053817
C            2.75210033942402       -0.86087726238274        1.19254226911893
C            2.25865946204474       -2.09483637283490        1.53426116001992
C            3.07722106040811       -3.08713596521050        2.06865310014729
N            2.54499928572961       -4.32289694742799        2.41472944589263
N            2.72736831444030       -4.88009091760704        3.51458590374251
C            3.36523525752030       -4.27293593384252        4.59138582465103
C            2.69301949252740       -3.35598598084021        5.39321555184339
C            3.33459838864841       -2.73213657198563        6.43519944554042
C            4.67173057503038       -3.00403771388906        6.71110410034329
C            5.33573145630806       -2.36461998914039        7.77206232316788
C            5.93038157718881       -1.81087487133440        8.68575286228316
C            6.61135362151222       -1.17860495246663        9.73723825708027
C            7.67657118309127       -0.32799467397159        9.45059686633302
C            8.37578147167783        0.31444574189884       10.44477674866858
C            8.03780794604771        0.13437722657919       11.78781865980624
C            8.74243375026174        0.78814597407027       12.84425342363794
C            8.39760576117801        0.60168323636044       14.13793067543576
C            7.31398478556586       -0.25754330715197       14.49820163343259
C            6.93696278812297       -0.46620284042042       15.82567375079184
C            5.88570699137735       -1.30254264362848       16.13732974586985
C            5.18308523420940       -1.95220236646657       15.14445035928639
C            5.51952587446116       -1.77795214749541       13.80115911784852
C            4.81500626714813       -2.43334347941988       12.74515033977363
C            5.15985622905059       -2.24537981625028       11.45187285597825
C            6.24085494017801       -1.38637298614871       11.08319225935471
C            6.95983229199962       -0.72398137085557       12.10888184266010
C            6.59705388692283       -0.92072476110110       13.47281466626593
C            5.34452536474204       -3.91655789059436        5.90636740551452
C            4.71690612398381       -4.54207953487992        4.85060063800156
F            5.41691652072226       -5.33869479383650        4.01001972905077
C            4.43144284339310       -2.80869191390688        2.23807459376206
C            4.94388677511284       -1.58341611332643        1.90612722427877
C            4.12128986257644       -0.57871640887567        1.37974622322328
O            4.61266143433219        0.66308703271693        1.04575024127598
H           -0.05514278581311        0.41449907937463        0.05878634159745
H            1.81131309262578        1.04097627162115        1.32356076022552
H            2.24601890680713        0.54499051228900       -0.31763274570898
H            1.21299873521504       -2.29561787677963        1.39203659520930
H            1.66142833477149       -3.14028487750989        5.17691855533668
H            2.80870218506117       -2.02289398129891        7.05078336480046
H            7.95013814305061       -0.17758627881347        8.42020309901001
H            9.19488987764887        0.96608961437264       10.19479747524345
H            9.56117407700899        1.43881504748212       12.59075731609603
H            8.93975998923850        1.10269129476266       14.92081537636465
H            7.47858437519178        0.03595437347820       16.60835899839154
H            5.61004822101322       -1.44989769424329       17.16857450156814
H            4.36428963164861       -2.60260051756898       15.39869422853321
H            3.99748519760145       -3.08534506565419       12.99885005149973
H            4.61645998417616       -2.74795079238420       10.67125861349531
H            6.38006095210425       -4.13108750806743        6.09545014888391
H            5.06473696676337       -3.57777891306940        2.64322306550429
H            5.98968092985865       -1.38027720471391        2.05081491068656
H            5.56747025946625        0.71348437765957        1.24517948234991
