34
 energy: -7.367001646087 gnorm: 0.000743553503 xtb: 6.5.0 (97a52f5)
O            0.96006116321114       -0.84296802500126       -0.97027848309125
C            2.16001546484834       -0.42513253744516       -0.33918258235618
C            3.06092964871953       -1.57033381008248       -0.01434642325511
C            4.21417297842556       -1.51726408699924        0.73583087775236
C            4.75893671827799       -2.82033548337272        0.77843622908767
C            3.90022705567353       -3.65164458230002        0.02445105430628
C            4.16091784185568       -5.01308557482504       -0.13216711664943
C            5.28404398749360       -5.56691153958062        0.46651276530640
C            5.59130681726981       -6.95960116283260        0.33221320336583
C            6.68037677246863       -7.50079285626700        0.91768781372843
C            7.57823336844826       -6.70518589342171        1.70127747079399
C            8.70386803520732       -7.24745656370107        2.31615130004701
C            9.55208241994777       -6.45499275564521        3.06783086654981
C            9.30346707239626       -5.11102176089917        3.22458205568519
C            8.18598390147021       -4.51501083066705        2.62710038256770
C            7.89933138111774       -3.12695037784133        2.76921957141365
C            6.80906514919010       -2.57441412844484        2.18310751700229
C            5.91677776282890       -3.35996915938736        1.40873340714594
C            6.16563289164114       -4.73990661845273        1.24226077154387
C            7.31191159069796       -5.32065650379832        1.85714591111889
N            2.86703628025103       -2.85536996794856       -0.45054425148979
H            0.39118674625109       -0.07547698923604       -1.18759323404340
H            1.90980010935729        0.11498552622601        0.58192913659423
H            2.68664777043904        0.27490441601241       -0.99907229654886
H            4.62177473477198       -0.63966082127029        1.20607088749170
H            3.49397373752654       -5.62261483871792       -0.71234041188293
H            4.92949678395903       -7.57573438094638       -0.25141258415386
H            6.89145297100052       -8.54990996854434        0.80340015397317
H            8.90810016938504       -8.29780925956005        2.20048432030292
H           10.41700667749726       -6.89566746395739        3.53604020598953
H            9.96889663134789       -4.50205184741852        3.81167411371695
H            8.56751132820600       -2.51879707421076        3.35385377002532
H            6.60565815078200       -1.52444474556714        2.29948805148043
H            2.08447588803592       -3.16530833389495       -1.02341445351870
