105
 energy: -21.792794367864 gnorm: 0.000482183819 xtb: 6.5.0 (97a52f5)
C            0.76751460308831       -0.06869950507824       -0.23653061821938
C            2.30417802747825       -0.08918947371666       -0.13106644470245
C            2.91671307555638       -0.33956928851899       -1.52185620835356
C            2.77383044788572        1.29244415429616        0.36526284378825
C            2.73366725242869       -1.21645876824758        0.82097081303413
C            3.49403929279712       -0.96820066968737        1.97877947457915
C            3.88468528657863       -1.97546684567014        2.82643543103546
C            3.51313352525717       -3.28464139420275        2.53349617711272
C            2.76347652043212       -3.55403475324486        1.37944182636105
C            2.37529140046358       -2.51903637746356        0.52942396082952
C            2.56366003590328       -4.98245778374760        1.32187063737097
C            1.89956275651498       -5.79716251170321        0.40585115449240
C            1.86070850403663       -7.16464618973859        0.60122502382093
C            1.12768693177873       -8.04659497014186       -0.42196739203060
C           -0.35130335632794       -7.62185936857809       -0.49286701012615
C            1.78400508852825       -7.87286818720548       -1.80469247828645
C            1.18607519547901       -9.53906346965619       -0.04152570671752
C            2.49674236426038       -7.70292372989271        1.73550826535328
C            3.15641506691663       -6.91509344290406        2.64702553941668
C            3.20014444886291       -5.53907427328391        2.44101987470849
N            3.78780885823102       -4.50076688306336        3.19507843218523
C            4.57662976293324       -4.64758676193479        4.38622728025576
C            4.33721232441899       -3.84565582866602        5.49653596244841
C            5.11984285790996       -3.95477067198043        6.62177632468366
C            6.16691408133423       -4.87042107891831        6.67493636087277
C            6.98257495943700       -4.96200710007353        7.81972108615796
C            7.70297644350006       -5.01320607079622        8.80500897276169
C            8.54605582040825       -5.04807538428041        9.93345733699258
C            9.01531917711330       -3.84711450076025       10.50269524022759
C            9.83909870378329       -3.84360191024732       11.59993052022152
C           10.21788642697581       -5.06628259257634       12.15706893626655
C           11.04835227536975       -5.40321021081338       13.28546996405238
C           11.76353929805082       -4.62092900255308       14.19406951996842
C           12.49116483683253       -5.24845078697498       15.17362706814307
C           12.53327380094797       -6.65336641372599       15.27836412070907
C           13.29970549567620       -7.26659106698655       16.28917231549186
C           13.96903539109131       -7.79775185619717       17.16224350816864
C           14.74662819247044       -8.40790626331069       18.16622172545581
C           15.61476469821043       -7.65322044964943       18.94983374159642
C           16.37780909563213       -8.24702175363959       19.92877896391473
C           16.29518692168576       -9.61763078826979       20.15446378522723
C           17.09853457878943      -10.26384124496855       21.18927528630512
O           17.09109974488995      -11.43685711504934       21.45313585768594
C           15.42948173741756      -10.37249769789416       19.37429348419553
C           14.66657395063805       -9.77824221897065       18.39533365047390
C           11.82178702761083       -7.42687638494036       14.37828020402263
C           11.07252617736372       -6.80503527274814       13.38284334412789
N           10.28328300993384       -7.34698174037279       12.34764771740118
C           10.05964306475350       -8.74388010357829       12.09621106614327
C           10.23809202707312       -9.27208422898114       10.82325327959903
C           10.02021365665180      -10.60987054278012       10.58544742309478
C            9.62239521531297      -11.44520940405331       11.60998398528389
C            9.38092233658167      -12.92680923302210       11.32329067259722
F            8.37765745235696      -13.02823994293960       10.43027752112357
F           10.51268031213941      -13.45218289590852       10.81576017987981
F            9.04984084768043      -13.55415932339055       12.46856600043894
C            9.44252032810528      -10.92835540046700       12.87806599566070
C            9.65836834094327       -9.59129838480195       13.12184693943097
C            9.76299053677144       -6.27259372771220       11.59741045678034
C            8.92205723833277       -6.25886271626050       10.48749558647903
C            6.39813855044622       -5.67926415809978        5.56570169058671
C            5.61553387819102       -5.57011703157016        4.44006440029194
H            0.43259290087675        0.73642632527493       -0.88928535324151
H            0.31719387567411        0.08194349629727        0.74372625292713
H            0.38505717042867       -1.00455182713188       -0.64037359206567
H            2.64634193537869        0.45530480673472       -2.21576518477578
H            2.57002096985590       -1.28170579226164       -1.94314576539900
H            4.00352589589273       -0.37991155676804       -1.46132160182265
H            2.45416499897524        2.07721214207819       -0.31925755058811
H            3.86009041111303        1.33756213472714        0.43129109152110
H            2.35548539858813        1.52006161304691        1.34484429458642
H            3.78529594597413        0.03970680457605        2.21308035527841
H            4.47793171026120       -1.77154166489577        3.69932987256179
H            1.80406490268618       -2.74894080206076       -0.35027636214952
H            1.42349045656388       -5.34897931459902       -0.44593350772273
H           -0.45157688840947       -6.58753154798285       -0.81749904554114
H           -0.82471644385393       -7.71365786712417        0.48379802140697
H           -0.90255069994313       -8.24565675789847       -1.19533055348491
H            1.71847571377137       -6.84168126290461       -2.14768828104971
H            1.29767015598099       -8.50235695285999       -2.54876907128283
H            2.83755320196460       -8.14681443549130       -1.76711423929507
H            0.71474680797218       -9.71656444061431        0.92421692283890
H            2.21531219531530       -9.89267089019878        0.00289091501132
H            0.66204149599488      -10.14571442295030       -0.77915521702849
H            2.46855783712232       -8.76463082752347        1.90171111200645
H            3.62846303181488       -7.33966024378728        3.51457223913561
H            3.52414936456485       -3.14182876765211        5.46426413555365
H            4.93330471348381       -3.32674772317734        7.47601703395623
H            8.71138729010568       -2.91573958264647       10.05672711864489
H           10.19275809907183       -2.92445101634318       12.03188825255414
H           11.73907696043416       -3.54872687887422       14.11475215264442
H           13.05157468321988       -4.66480422267590       15.88347453762959
H           15.68242290688136       -6.59258087698899       18.77783478973742
H           17.04666215414344       -7.65370515779269       20.52819073794982
H           17.76020603650182       -9.63955607457678       21.77379934301585
H           15.36652363582198      -11.43271913674463       19.54967221406322
H           13.99739658432234      -10.36943706639028       17.79392471655519
H           11.85394441972194       -8.49843759650269       14.44007070477409
H           10.56181252423519       -8.62216861207063       10.02940658552209
H           10.15825728371446      -11.02276988667681        9.60074807201707
H            9.12912781401580      -11.58685369740406       13.66976589832203
H            9.50430528020303       -9.18352736188569       14.10542790057855
H            8.56489427090082       -7.18102492830524       10.06897917661116
H            7.20732757854844       -6.38853175813054        5.59779157274899
H            5.81322951820086       -6.18159337854048        3.57726823443654
