36
 energy: -7.730276419756 gnorm: 0.000856886767 xtb: 6.5.0 (97a52f5)
O            1.54366198748339       -0.84856590099783       -0.03317367960111
C            2.53780204591326        0.15809105597257        0.08394440849920
C            2.97521916841153        0.71315778774754       -1.23991797729127
C            2.84630615683489        2.05148136061873       -1.49808886665958
C            3.26162409848139        2.59879370547240       -2.70665123777891
C            3.82481893328627        1.82166936214653       -3.70124565357069
C            4.27041631249628        2.39413038129910       -4.97456218506346
C            4.14339004301533        3.74264937331689       -5.26042267822891
C            4.57486507841611        4.27815258500430       -6.47050319889761
C            5.14071992215828        3.47860639987048       -7.41800714190066
C            5.29558304007858        2.09658195614267       -7.18693741460645
C            5.87750409467132        1.25561259591870       -8.15712700899804
C            6.01865568412261       -0.07877200818567       -7.91877343757453
C            5.59027408956822       -0.63069526479315       -6.71496174668643
C            5.01051002987847        0.14321431884258       -5.72445925585137
C            4.55183820125534       -0.42965859678428       -4.45564878403689
C            4.66297018067185       -1.78130768540782       -4.18165941073852
C            4.22113055382585       -2.32048067863393       -2.97835659490941
C            3.66724455580406       -1.51909785267613       -2.02629034985862
C            3.53435157747846       -0.13133529334937       -2.23503338175031
C            3.97148106329705        0.42261941455151       -3.46804642968207
C            4.85700397536179        1.54227510703217       -5.95679149171954
H            1.25919439075604       -1.16959450379378        0.84830170557867
H            3.40784020462203       -0.25614251412794        0.60840968846561
H            2.14560720025975        0.96606360649830        0.71391344448497
H            2.41762374183544        2.69101484496981       -0.74547812941242
H            3.14019959191486        3.65571529067366       -2.85553923416878
H            3.70119067588168        4.40506617800107       -4.53955848208261
H            4.45995301279662        5.33346564314256       -6.65761423918208
H            5.47389762976884        3.89348930100033       -8.35365770147800
H            6.20892482537293        1.68152909627999       -9.08844821733679
H            6.46519593232018       -0.71323094618697       -8.66703565450886
H            5.72014712748801       -1.68647040003233       -6.56463708061549
H            5.09363790890972       -2.44406140929159       -4.90919259972778
H            4.31318251869068       -3.37991036817351       -2.80216179157566
H            3.30516444687120       -1.94421594206659       -1.10735819153614
