72
 energy: -15.523290284408 gnorm: 0.000675925326 xtb: 6.5.0 (97a52f5)
O            1.39088069723858       -0.52411057777715       -0.75089105279845
Si           2.93194266514621       -0.22815691083092       -0.14233676362259
C            3.64935720312174       -1.77188268679346        0.67074056362535
C            2.85419568414834       -2.88065789596742        0.99802103517886
C            1.48103536541612       -2.99670975286416        0.64026355378398
C            0.73964474621837       -4.08294140322990        0.97106328181590
C            1.31148044042834       -5.14480605299074        1.69292652659949
C            2.61371145914530       -5.09092530047319        2.06423192506381
C            3.42330611226374       -3.96895967841144        1.73233965458127
C            4.75663594869388       -3.91792853369887        2.11746318592009
C            5.55584347083533       -2.82969627092550        1.79441285200394
C            6.91662290757797       -2.77116831119996        2.20575006457897
C            7.69151432053672       -1.70164877589195        1.90011498700694
C            7.15783690957799       -0.63066537495275        1.16228148505363
C            5.86576178427503       -0.65457659799560        0.75252040705040
C            5.00021167237587       -1.74422824881116        1.04881272749053
C            3.97601756310005        0.17534731112396       -1.65067648403767
C            3.85703598417623       -0.73933674955178       -2.70415123075110
C            3.10901337553035       -1.94807896581221       -2.60014552516096
C            3.00437565733166       -2.81314469780389       -3.63916037526393
C            3.64126309220015       -2.53993122331828       -4.86336099315169
C            4.37470541841975       -1.40942201066580       -5.01490697294826
C            4.51325006520506       -0.47928676108266       -3.94717876864768
C            5.27985105437300        0.67089984061670       -4.08823756236562
C            5.43378411401921        1.56783290175707       -3.03758648031831
C            6.24577548829700        2.72725349265623       -3.18253593974633
C            6.41976367969164        3.58910768744550       -2.15107050741056
C            5.79720300446910        3.34601334510489       -0.91423164669409
C            5.01058242279114        2.25568730165277       -0.74017600923160
C            4.77892821616830        1.31915343813576       -1.79031119068580
C            2.64421838587165        1.23971623834351        0.99277059676412
C            2.97813202852393        1.25427494875556        2.35402279971351
C            3.31267415746463        0.08302698120624        3.09120401123803
C            3.65617423428839        0.13926726019274        4.40169460823795
C            3.68141725189957        1.36963432649782        5.08246201731317
C            3.34113166500541        2.51307389292841        4.43831820469605
C            2.96490457615329        2.49442680602110        3.06625702835292
C            2.57745162793925        3.65914640397478        2.41321066038171
C            2.18155586514480        3.64147088835103        1.08105024490181
C            1.77952803888726        4.83135381723625        0.41301412335050
C            1.40923267415012        4.80703143618557       -0.89128000331992
C            1.41147151755622        3.59658324228347       -1.60783851829286
C            1.78597315072387        2.44054348492213       -1.00602988154396
C            2.19591470440370        2.40738223890906        0.35963345766745
H            0.63993442668947       -0.06408681693813       -0.32860991327051
H            1.02516774465712       -2.20245002115838        0.08623382884003
H           -0.29652483236366       -4.13791811572131        0.67924449579543
H            0.70974115858141       -6.00141327683559        1.94927061988867
H            3.05453511712318       -5.90217284663901        2.61780225699120
H            5.17653514795167       -4.73416889842512        2.67710453631865
H            7.32265994380572       -3.59248645213735        2.77077388269896
H            8.72027971259729       -1.66851194655820        2.21941041223240
H            7.78440646035199        0.21202445212227        0.91943880573179
H            5.47964991333325        0.16215810429181        0.17936425145842
H            2.62335254153369       -2.17427301064378       -1.66951796064300
H            2.43089708065494       -3.71932670365297       -3.53036079653447
H            3.54648754679202       -3.23767487433287       -5.67931493448020
H            4.86789524004786       -1.20380355600143       -5.94932835601929
H            5.77654332820917        0.86192548275676       -5.02231617118782
H            6.72794017641815        2.90777570998966       -4.12804643818184
H            7.03920665489737        4.46245629208725       -2.27408187854069
H            5.94802483940219        4.03570432705710       -0.09980598397976
H            4.55320646665827        2.09375678450500        0.21681878001988
H            3.26690614309923       -0.86902192824614        2.60179147876490
H            3.90830149837799       -0.76508465555310        4.93120665481636
H            3.96224895926219        1.39762299047791        6.12261141141283
H            3.34700761424470        3.45376184383361        4.96176714622732
H            2.57183776208677        4.58912361309279        2.95235816277906
H            1.77786250922849        5.75772802095815        0.96108981315750
H            1.11094039080343        5.71707610712393       -1.38556242173921
H            1.11495403912101        3.59320616618867       -2.64401771148844
H            1.78713201566448        1.52514870498468       -1.56859806706782
