32
 energy: -6.923615988360 gnorm: 0.000664381914 xtb: 6.5.0 (97a52f5)
O            2.43289335013775       -0.03013411190463        0.32981579574764
C            1.09270212757289       -0.01844743473135        0.00325401664236
C            0.37223082427936        1.20178453673304       -0.07386648516338
C            1.00867472429234        2.49882711786449        0.03078681116592
C            2.26449639796394        2.95773986852362       -0.30470921951429
C            2.48245025625737        4.34543286477153       -0.05716895186699
C            1.41375388623999        5.01341249210005        0.47033581262010
S            0.23545551065675        3.85331931409640        0.60666076110507
C           -0.99866549939061        1.17680450040714       -0.27419999694039
C           -1.67195629282515       -0.01135739850357       -0.46153504819414
C           -0.97843829523877       -1.19887450133834       -0.45073844098873
C            0.39374954496567       -1.23598384169905       -0.22403476913557
C            1.05616349136343       -2.52243260870480       -0.20110235207461
N            0.44538877422205       -3.65419804132688       -0.41667115000763
C            1.30768938940664       -4.73976981035845       -0.34377667712729
C            0.94458120057280       -6.08140125312234       -0.52962944402656
C            1.89986766542763       -7.06148034562547       -0.43031831347686
C            3.22634060490146       -6.74052462200873       -0.14758833628794
C            3.60384179293599       -5.43246688952231        0.03874718643287
C            2.64567761807850       -4.43431504765866       -0.05878562857633
S            2.77307394870087       -2.71666827106404        0.12136391678956
H            2.70054562842714        0.82565802837035        0.72112160713098
H            3.01473224141644        2.32200524993549       -0.75916264608302
H            3.42559174489292        4.83406219422007       -0.27658187807727
H            1.33134980796236        6.05475342433824        0.74266171511524
H           -1.52660883699083        2.11551243169022       -0.29426318409819
H           -2.73693053728031       -0.00844141333920       -0.62586428216094
H           -1.49666439398582       -2.12869364921187       -0.60783231836482
H           -0.08078423157237       -6.32181965349042       -0.74702285390746
H            1.62229116851860       -8.09291705212060       -0.57268847870984
H            3.96089218883460       -7.52558089640296       -0.07334548108725
H            4.62368419926028       -5.17102518091767        0.26065831311992
