74
 energy: -15.369902919752 gnorm: 0.000820319848 xtb: 6.5.0 (97a52f5)
O            3.39725593216704        0.16578485602100       -0.36312285318681
C            2.07961632212919        0.55255976252097       -0.23002952011274
C            1.76366624543401        1.92127073315006       -0.03260702721703
C            2.81375986768375        2.94323376743001        0.07701208432907
N            2.78684891409258        3.91422277057443        0.99088100727710
C            3.90746187968124        4.64111375726601        0.79443010373987
C            4.37274585549746        5.81077929187297        1.49592494194789
C            3.66211617214083        6.33101896825142        2.57998055020216
C            4.11706619168571        7.43286793327079        3.25005891628268
C            5.30732362066750        8.06394320604985        2.86401917141183
C            5.80840737852638        9.25088649361416        3.59300526014104
C            5.70150043804915        9.33862169630812        4.98088396797855
C            6.17416859718943       10.44203515231406        5.65754978449405
C            6.76306923357479       11.48039743091597        4.96416264697659
C            6.87814207408624       11.41206432005452        3.59017958823639
C            6.40668782885556       10.31004339544205        2.91050423124249
C            6.01056410271363        7.55046491197752        1.78447756442911
C            5.57378870470477        6.42868619686244        1.07477477073861
C            6.32155754304782        5.88836966437601       -0.06788533745126
C            7.49587360291024        6.48312693775351       -0.53635603191119
C            8.20517146504136        5.97283293321177       -1.61361489166217
C            9.44207511660949        6.63593008197414       -2.08351086741650
C           10.34831182611437        7.18661849866206       -1.17713308055922
C           11.49740471731662        7.80762417018278       -1.61592189722093
C           11.76653210843488        7.89252410515903       -2.96729325517549
C           10.88162805597879        7.35409744997809       -3.87990096811403
C            9.73155350267493        6.73241844399259       -3.44464349551618
C            7.72345842286846        4.81921454989994       -2.24802299974599
C            6.57531784888748        4.21354974761490       -1.81940374169650
C            5.85625307608211        4.73113452584585       -0.73737554281896
C            4.64323325629890        4.11587936867938       -0.28021072517343
N            3.95460331177668        3.01871734015879       -0.72489829669357
C            0.43221759909100        2.27792755975136        0.14429745406298
C           -0.58781806788045        1.35158448458994        0.10558011568470
C           -0.28262845440892       -0.01003295407335       -0.10550758315105
C            1.05500854687267       -0.39915806264296       -0.26570155984121
C            1.41800125416575       -1.83507157599040       -0.47830360449636
C            0.37247841833239       -2.80169537176559        0.09425509189856
C           -1.03493844750289       -2.40744052921545       -0.35129460506872
N           -1.30810554200948       -0.96965189952869       -0.14143483052550
C           -2.73123251627218       -0.57807493363822       -0.09576288288086
C           -2.94682554179943        0.67933632741072        0.74379500690967
C           -2.00766385961142        1.80726925710094        0.29246613268826
H            3.89915156297829        1.00831466866352       -0.41263815528024
H            2.74922574655609        5.84713447406343        2.87992543079736
H            3.55572961087237        7.83208193442053        4.07697558187425
H            5.25677410802698        8.52333526638876        5.52490526900903
H            6.08625778198366       10.49352022189235        6.73056596295613
H            7.13274156097080       12.34270861234850        5.49469126292295
H            7.33646144031537       12.22306023495887        3.04799078036682
H            6.48531068113263       10.26573947154338        1.83796492257414
H            6.92982871171859        8.03002272552698        1.50903496145302
H            7.86317790191772        7.37671981269965       -0.06997451952733
H           10.14816171451102        7.10932013443449       -0.12245630733184
H           12.18865570264480        8.22629272422621       -0.90275124857017
H           12.66572905564439        8.37851801440592       -3.30927751107397
H           11.08981491490192        7.42219743834043       -4.93525430670231
H            9.03553528571833        6.32734586610018       -4.15866323114418
H            8.27666686986216        4.40523201883807       -3.07320088158991
H            6.21349527661807        3.32774608810084       -2.31085551776990
H            4.08425523658323        2.58737834282382       -1.64205264101439
H            0.19651411660451        3.31293575203573        0.31502088540791
H            2.40397227460130       -2.02126798551956       -0.03347718378150
H            1.54152750665737       -2.01112189235941       -1.55337308231824
H            0.42476416893624       -2.78921647877267        1.18984424488369
H            0.59650614715461       -3.83600512546037       -0.20214477281489
H           -1.79164219031438       -2.99159715859850        0.18338782702299
H           -1.17306610795358       -2.62158878561053       -1.41568635734201
H           -3.32200068747395       -1.41615006043678        0.28939303627624
H           -3.06424414661253       -0.41189168316133       -1.12508872979808
H           -2.75802495108076        0.44692173703083        1.79901982812648
H           -3.99609087468853        1.00250359517482        0.69370532934320
H           -2.02757469936797        2.63262907382381        1.01562052630551
H           -2.36643032131628        2.23341619869164       -0.65198419629734
