78
 energy: -17.348906090018 gnorm: 0.000985345820 xtb: 6.5.0 (97a52f5)
O            1.22263962873307        0.18284027370037       -0.39112268623285
C            2.59036907679653        0.13151499971412       -0.31070762652931
C            3.38757922675348        1.29045349085940       -0.48478779895676
C            2.77759218346177        2.59104974549556       -0.78729869534121
N            3.29878149850748        3.44606460385983       -1.66764102332387
C            2.46800595752948        4.50999291404743       -1.69120353174201
C            2.56359314130757        5.72512315928216       -2.45935912998474
C            3.60976552584796        5.92497172213300       -3.36268661818958
C            3.69414369448883        7.07982400238382       -4.08989443281095
C            2.73178599823341        8.08810522987906       -3.94520725445113
C            2.81699544925054        9.33660917735429       -4.73582524691876
C            2.48760444207421       10.56743075253943       -4.16885700130508
C            2.56287425043654       11.72818693345015       -4.90758222409694
C            2.96807613681471       11.68526455565972       -6.22639900241877
C            3.29730933375789       10.47634127572679       -6.80568823496498
C            3.22295961095129        9.31364962310679       -6.06987327525070
C            1.69390959636540        7.89041493079630       -3.04678033370853
C            1.57674159441008        6.72385634641336       -2.28643366485059
C            0.47786279660209        6.51851360911257       -1.33455413800434
C           -0.52148599155983        7.47447075276797       -1.13569470768068
C           -1.56170151039726        7.28340372295262       -0.23873872799287
C           -2.60522543911666        8.31839812112300       -0.06453530551292
C           -3.94479719347829        7.96651200922550        0.10214699718371
C           -4.91594655738522        8.93243655964533        0.25264006565045
C           -4.57108392040525       10.26877755235106        0.24007476996337
C           -3.25086535773254       10.63727092063607        0.07665770324593
C           -2.27730028363527        9.67394773198286       -0.07436989487584
C           -1.60634024921856        6.08716162825434        0.49065424510875
C           -0.64764453960347        5.12781646424989        0.31927103696511
C            0.40198950419785        5.31999261852214       -0.58481178790499
C            1.41079330488361        4.31933885216145       -0.78743526072601
N            1.60022574872919        3.08563661662690       -0.22313868106357
C            4.78902482906420        1.18004932462280       -0.45420975133067
C            5.42651944561299       -0.01256034501695       -0.22506758554693
C            4.65687902763733       -1.16093753120836       -0.02526485583106
C            3.25807612222905       -1.08977270616120       -0.07815221121103
C            2.74894756343000       -2.41643740541390        0.12686834399209
C            1.44962058981511       -2.91993423595355        0.17828612563222
C            1.27327456304827       -4.26319475325374        0.40450019958536
C            2.37082438741587       -5.11098219004378        0.58225763544909
C            3.65631439121198       -4.62793450346800        0.53353819777418
C            3.85387178868332       -3.26749334554924        0.29925021772279
N            5.03380875958553       -2.49825863282494        0.20710743429578
C            6.37887604146506       -2.99472997795407        0.31893041260170
C            7.28526850840288       -2.39133748976385        1.18324238236805
C            8.57315429403640       -2.86767134923160        1.29090078048500
C            8.97460162208150       -3.95320442061604        0.53722741497434
C            8.08359582864178       -4.56136500425138       -0.32526912521448
C            6.79529437765429       -4.08645491609275       -0.43425662851728
H            1.01011280290691        1.13754929992601       -0.47393818919514
H            4.35011010439853        5.15259245935824       -3.47541345449461
H            4.51206433889368        7.22944535825302       -4.77316468938730
H            2.18535715530176       10.60582425543328       -3.13653730214521
H            2.30714192815529       12.67207542993536       -4.45449257605407
H            3.02680287799369       12.59402716480328       -6.80304224921846
H            3.61120389854196       10.44155747332657       -7.83614790513644
H            3.46578188072153        8.37040139912694       -6.52767826395724
H            0.95610323742928        8.66362384107043       -2.95378659382627
H           -0.50605465440114        8.38704893528716       -1.69952206687909
H           -4.21812057755291        6.92570635836051        0.09633395043851
H           -5.94718574185025        8.64476557658864        0.37774877512339
H           -5.33133705183101       11.02374296986358        0.35784664473042
H           -2.98113263898334       11.68068466447145        0.06900881149448
H           -1.24703530153661        9.96373856093919       -0.18844125550623
H           -2.40181809964098        5.93515378563295        1.19942897155255
H           -0.69106693411956        4.21198574844593        0.88164749568733
H            1.15350068735128        2.77513115145251        0.64173173103482
H            5.36913418807489        2.07086217478236       -0.62074154500114
H            6.49929755108209       -0.07986087768070       -0.20972744186083
H            0.61724627346411       -2.25253777397076        0.04275792505337
H            0.27619096628968       -4.66949605976010        0.44773436132263
H            2.20445526644039       -6.16048506044923        0.76168296821514
H            4.50319093778162       -5.27418797699516        0.67839430145372
H            6.96050191083458       -1.55397750453095        1.77578475931773
H            9.26753004392777       -2.39421705228310        1.96550279931084
H            9.98251492042110       -4.32538982124191        0.62213387083336
H            8.39708650751833       -5.40721843977183       -0.91486722508016
H            6.09847472479447       -4.54652745420527       -1.11286412833055
