32
 energy: -6.936484142401 gnorm: 0.000687563062 xtb: 6.5.0 (97a52f5)
O            2.33083042451641        0.09813027150127        0.50356791539190
C            0.97063623698774        0.03768378658694        0.27439306046221
C            0.20339324511580        1.20231798443114        0.30689885567824
C           -1.16213620261126        1.18661955732410        0.08437631803800
C           -1.88189679849218        2.43497679921296        0.14295221645599
C           -3.21550415595420        2.75505424016827        0.01215223988610
C           -3.51109919223819        4.14309266555641        0.14559034146884
C           -2.42912751612932        4.94526911771125        0.38176139418089
S           -1.14422481105187        3.89769763984713        0.41633323263968
C           -1.79174258359604       -0.02938090345414       -0.18448339866651
C           -1.06059996636289       -1.18981061740760       -0.22331782410263
C            0.31474349602659       -1.19420800236507        0.00067787777879
C            1.02288568320747       -2.45171203530532       -0.05256461509461
N            0.44709401203934       -3.59558926175538       -0.30254410029184
C            1.34820695825908       -4.65062227780625       -0.29374871387910
C            1.02746613931194       -5.99587839218158       -0.52589240177858
C            2.01837825589655       -6.94420955537482       -0.48617277717510
C            3.33874674144131       -6.58719818285850       -0.21800796543776
C            3.67475627187485       -5.27479843492872        0.01236351986970
C            2.68076648717589       -4.30822815853891       -0.02533325392859
S            2.75427054286555       -2.59433921566990        0.21563415583198
H            2.61272953342069        1.01978196386601        0.66134429783561
H            0.67104913126003        2.14786744084542        0.51151220573705
H           -3.97741258050878        2.01014088105322       -0.18023673568979
H           -4.51979184231634        4.53314404821328        0.06656842715176
H           -2.39516835314199        6.01537757696691        0.51887906241462
H           -2.85264480816000       -0.04986359476254       -0.36101909212205
H           -1.54691643360545       -2.12700816579121       -0.43034617262796
H            0.00663315765334       -6.26355787603695       -0.73223908872499
H            1.77378561934656       -7.97820288724619       -0.66535342656150
H            4.10211623885225       -7.34733475486339       -0.19227502089197
H            4.69031706892190       -4.98558165694440        0.22001946615148
