80
 energy: -17.513766961998 gnorm: 0.000346282280 xtb: 6.5.0 (97a52f5)
O            0.12191904663535        1.69264818019055        1.75032925976572
C           -0.97580823864625        1.30342917994069        1.00887504903191
C           -2.06477618414300        2.16209397916582        0.87992739828709
C           -3.18527837364191        1.82622365766986        0.13448977611737
N           -4.27207812290110        2.74858286524323       -0.00565876447095
C           -4.01684799023802        4.16157903220691       -0.03765612305824
C           -4.89205754990714        5.05559265294143        0.57433016424871
C           -4.64884975115417        6.41032148712335        0.54222029032594
C           -3.52860769714277        6.89781882603958       -0.10245965783716
C           -2.65236682170001        6.02451288047776       -0.71685290509607
C           -2.89364355718021        4.66954041550136       -0.68626957664928
C           -5.61693436351352        2.26753528160531       -0.15224564907119
C           -6.50071867364704        2.88942762987679       -1.03089110974333
C           -7.79081914093308        2.43032173290531       -1.17222982729834
C           -8.22293373271857        1.34286811466055       -0.43820921575698
C           -7.35907947056539        0.71609090769082        0.43881918637461
C           -6.06824617153495        1.17308551224966        0.58148871508638
C           -3.21676158991637        0.58003117143495       -0.48990434691243
C           -2.15777577315422       -0.28579272704043       -0.37786867976635
C           -1.02119576895286        0.04339519101550        0.35746929410324
C            0.09517419907213       -0.89131212790573        0.42640440098039
N            1.14415099385722       -0.77587060076170        1.23787624659698
C            1.95570014259087       -1.82010353541571        0.96240538564524
C            3.23962695782198       -2.15043007684482        1.52512182494654
C            3.80746009249610       -1.36381827024040        2.52959378739025
C            5.03697691485729       -1.66933057462718        3.04380317034834
C            5.75427486122678       -2.77694126222836        2.57170670294566
C            7.09458628106374       -3.09755662443475        3.11174844109905
C            7.48267515658213       -4.41941562602184        3.32954000183481
C            8.73414124306160       -4.71549472085221        3.82437821390139
C            9.62403478652314       -3.69987777032360        4.11145823241700
C            9.25837325527314       -2.38528129110078        3.90229067152161
C            8.00762324247250       -2.08569404250188        3.40800083137952
C            5.18675655158737       -3.56208688756092        1.57885992163075
C            3.93140783932921       -3.28172646219006        1.03261240956473
C            3.33515410106680       -4.10847737725485       -0.02467411455921
C            3.97945977935385       -5.23731249645667       -0.53688797508563
C            3.42166232902020       -6.01783206576250       -1.53860683068761
C            4.14106904793894       -7.20183315309334       -2.05908319023224
C            3.45697397731761       -8.37498974448486       -2.37730118570963
C            4.12997246580069       -9.47596559006547       -2.86056857911324
C            5.49842081532430       -9.42958732026553       -3.03680068063262
C            6.19322405210161       -8.27744533770143       -2.72776290971311
C            5.52356919097900       -7.17490938210934       -2.24369189663856
C            2.16624086373537       -5.65797144524309       -2.04816478244722
C            1.50588563394043       -4.56064510860959       -1.56972204999788
C            2.06849893426489       -3.77202128222795       -0.56105942355396
C            1.39445377416989       -2.61275649143152       -0.04999983617766
N            0.20641737174065       -2.01981944128412       -0.37976068508503
H           -0.02068694916910        2.58781171907443        2.12081802305713
H           -2.03962098342682        3.11586581325828        1.37117156993044
H           -5.75894400082942        4.66887997759766        1.08097908927727
H           -5.33281942881814        7.09126810723959        1.02171709387083
H           -3.33876555920267        7.95847763420378       -0.12672507912006
H           -1.77954779721270        6.40438391237644       -1.22219798332811
H           -2.22076076550299        3.98560769495472       -1.17334141941788
H           -6.15513984199236        3.73059471928324       -1.60598253418124
H           -8.46386999955440        2.91917930815776       -1.85741650348815
H           -9.23314786330771        0.98409664354395       -0.54942702115019
H           -7.69642886264552       -0.13090298405280        1.01345709828476
H           -5.39385332549567        0.69553608829653        1.27062033661749
H           -4.07863339563634        0.31299082274459       -1.07560843279480
H           -2.20541166432392       -1.24297688806766       -0.86477890424776
H            3.25947090422752       -0.51036570423411        2.88884222886901
H            5.46156280981559       -1.06342557935430        3.82540123335592
H            6.78601865515693       -5.21229244114782        3.11867975733377
H            9.01875898436171       -5.74202934488254        3.98840694546911
H           10.60301452598138       -3.93283995912877        4.49742922804929
H            9.95351643285128       -1.59183795990341        4.12344230013504
H            7.73019534606141       -1.06096943102834        3.23081791114523
H            5.75386202954101       -4.39513386704567        1.21094155247238
H            4.93263248073936       -5.53154915486857       -0.14217528511277
H            2.39208423159195       -8.41796314683689       -2.22730774240692
H            3.58733288118530      -10.37591581420820       -3.09993629917916
H            6.02351196973669      -10.29134434023190       -3.41537151108479
H            7.26127678426439       -8.23958647514658       -2.86754655853702
H            6.06554849512150       -6.27291770649023       -2.01769080762524
H            1.73155195364627       -6.24917092766175       -2.83548495161332
H            0.54395472586841       -4.29043657413592       -1.96798132227734
H           -0.42226770289889       -2.31874400430699       -1.12387139289066
