60
 energy: -13.153932530271 gnorm: 0.000851399654 xtb: 6.5.0 (97a52f5)
O            2.32333148887904        0.69883596365742        1.11759488715289
C            1.07960284133990        0.46380046476610        0.56549610265041
C            0.17576872218776        1.51040750790701        0.40416895444394
C           -1.07513988551574        1.32193508502589       -0.16550591671885
N           -1.98648366590203        2.41974137571242       -0.30146352652969
C           -1.48591554277550        3.73979983401887       -0.56303817229179
C           -2.06534863121125        4.85369400582688        0.03973622723999
C           -1.58140503677088        6.11856277824482       -0.20743636770805
C           -0.50982692550799        6.29600606177820       -1.06071867986347
C            0.07507271545477        5.20169116704599       -1.66775405623731
C           -0.40767719259482        3.93602427931915       -1.42252169357950
C           -3.39779408333216        2.21158617831730       -0.14181272339490
C           -4.31324142455940        2.92129615296489       -0.91518429076328
C           -5.66701769477917        2.72892788596772       -0.75521974605678
C           -6.13259504952934        1.82454766916295        0.17918437408767
C           -5.23786368264958        1.11291737937730        0.95442587765984
C           -3.88366906149785        1.30451420451834        0.79680774048023
C           -1.42408975134989        0.04201551192666       -0.59386856761459
C           -0.55243509429087       -1.00798711527602       -0.44444517263416
C            0.70063950578671       -0.83407008046118        0.13781286550638
C            1.58889976141523       -1.97974714796641        0.30746913436697
N            2.56699066543087       -2.06285981011716        1.20603733806822
C            3.12339583423615       -3.28370838135690        1.04682993845897
C            4.21729869168235       -3.88871816983814        1.76576683429291
C            4.86531126505252       -3.19927295338993        2.79206383313300
C            5.90023127974624       -3.77982167363813        3.47647705020249
C            6.30972272886639       -5.06388220359630        3.14860359510767
C            5.68663876073262       -5.75804093973735        2.14094513673578
C            4.62451458814445       -5.19807184229330        1.41737778530137
C            3.94212301518897       -5.91909884249619        0.33587351114840
C            4.31109011730066       -7.21529114830155       -0.04923740129485
C            3.65867873298296       -7.87277033217104       -1.06242567201405
C            2.60924635965692       -7.26351938050460       -1.73500531450972
C            2.21882354644856       -5.99733791422278       -1.38792253735033
C            2.86901017580553       -5.30957937337818       -0.35924255332179
C            2.47197218333096       -3.98154031636712        0.02040583805002
N            1.49202177902038       -3.14650492459656       -0.44286164130595
H            2.41551968204891        1.64473372965940        1.35190654854879
H            0.44792382063965        2.49368310574837        0.73662852836522
H           -2.89362027292091        4.70848139151990        0.71093555609370
H           -2.03820612509850        6.97177727110473        0.26668328180472
H           -0.13078381513501        7.28646100729141       -1.25258813350698
H            0.91034547249665        5.33950194721387       -2.33461461253326
H            0.03782431318466        3.08081507296292       -1.89994239993598
H           -3.94459547970316        3.61954491702459       -1.64611378015073
H           -6.36454300404591        3.28494526530928       -1.35997958745784
H           -7.19257239717888        1.67487769714603        0.30408063601925
H           -5.60039661624104        0.40884848937205        1.68532387056199
H           -3.18280875163393        0.76318557215156        1.40789329971631
H           -2.38761638526758       -0.10968256812366       -1.04753635636948
H           -0.84496400593336       -1.99236047383390       -0.76377852409827
H            4.53728423548040       -2.20365601392612        3.03457174848045
H            6.39464922616733       -3.24170151897483        4.26868559375055
H            7.12322586661300       -5.51829918685377        3.69022152373683
H            6.02536130319789       -6.75121920597259        1.90951894053347
H            5.12047997361972       -7.71164844860540        0.45401963406824
H            3.96226118018639       -8.86934841805287       -1.33876417344782
H            2.10283576541955       -7.78706220460516       -2.52944597540021
H            1.40572039056581       -5.51921454563766       -1.90480849613669
H            0.85064358712322       -3.33537383775728       -1.21217011353874
