28
 energy: -6.073931567559 gnorm: 0.000601042252 xtb: 6.5.0 (97a52f5)
O            1.05333946152766        0.05436581586240        0.05553836023908
C            2.43573233537225       -0.02109070976899        0.05780373294951
C            3.10514348076058       -1.24725810246017        0.05901815624855
C            4.49344952808707       -1.31609906252286        0.06159291848424
C            5.19644226902682       -2.56365975138055        0.06294756226262
C            6.54581214389687       -2.60773292750652        0.06538160365234
C            7.32876217967893       -1.40874202360541        0.06669995139161
C            8.71861888380077       -1.43065540567349        0.06882680391363
C            9.46656439591822       -0.25075206893650        0.06985626856136
O           10.85090995799826       -0.26588955779607        0.07108099463835
C            8.79580441764710        0.97402935335754        0.06906376347505
C            7.40819116773169        1.04557388521650        0.06682806167048
C            6.70593055774945        2.29347443219192        0.06554721018166
C            5.35657813720110        2.33754249196797        0.06307918840967
C            4.57431789087658        1.13816636227548        0.06167323821217
C            3.18497256909503        1.15733056487899        0.05909184419448
C            5.24112216000973       -0.11216234666366        0.06296022325698
C            6.66123238340396       -0.15857152913328        0.06555875405642
H            0.66770975825996       -0.84323523204165        0.05591927131212
H            2.53543876157342       -2.15710892181193        0.05795820185296
H            4.62420296697056       -3.47479611670729        0.06196744011181
H            7.05735747059736       -3.55425511767456        0.06633683916824
H            9.22792699880297       -2.37567470643405        0.06950771601861
H           11.17658071771768       -1.18689956009076        0.06795118202056
H            9.37734741984101        1.87658811295374        0.06990801776997
H            7.27841572282032        3.20444807835313        0.06656160862096
H            4.84481047230016        3.28393073707133        0.06211068701828
H            2.66339579133451        2.09585330607874        0.05812040030827
