32
 energy: -6.811082450434 gnorm: 0.000915153618 xtb: 6.5.0 (97a52f5)
O            2.35123123534702        0.14902552223648        0.39635348416919
C            0.97904009088038        0.09682018466004        0.26379625976440
C            0.22255659567981        1.27360465715328        0.30439106917791
C           -1.14254953252287        1.24748155637582        0.17513069375053
C           -1.82184799560421        0.04540927649611        0.00069483948160
C           -3.28168800600914        0.05279033686513       -0.12605644503839
C           -4.10682246153115       -1.05716583509030       -0.24921967183457
C           -5.40935634931286       -0.58540839924529       -0.33248486855824
C           -5.34199744504708        0.78588461746561       -0.26140957537126
O           -4.05062270013767        1.19482479133504       -0.13449297239768
C           -1.08644798394308       -1.12891452828896       -0.04342410225344
C            0.29602342650934       -1.13703356817448        0.08338527935811
C            0.98663459887695       -2.40706304449781        0.02822252496782
N            0.38224811865315       -3.55021901828983       -0.14002164631637
C            1.27233610857234       -4.61516623601173       -0.15489524736372
C            0.92600590800327       -5.96433526969167       -0.31848233194096
C            1.90935148662298       -6.92127698121765       -0.31187336256412
C            3.24782716978328       -6.57038373717117       -0.14408641799800
C            3.60968575095834       -5.25471467389604        0.01707703869372
C            2.62361272568565       -4.27948536642725        0.01099046591528
S            2.73088814548810       -2.55981042623514        0.18305842179366
H            2.64822707888752        1.07243386895967        0.51413663247223
H            0.72717487158550        2.21305174716808        0.44043867040512
H           -1.71282397158268        2.15994233168367        0.20909692401706
H           -3.79984965194807       -2.08897389456014       -0.26859471740542
H           -6.30162675501719       -1.18158313707030       -0.43231257007368
H           -6.18705941594700        1.46312798652051       -0.30710775288342
H           -1.59089285052822       -2.06696372748728       -0.17866758184310
H           -0.10835239269096       -6.22853515309692       -0.44747485658125
H            1.64477140092375       -7.95807341072758       -0.43862746593310
H            4.00471736800198       -7.33730305143243       -0.14166284538488
H            4.63935543136796       -4.96995741830906        0.14616212777221
