32
 energy: -6.935008014036 gnorm: 0.000746502351 xtb: 6.5.0 (97a52f5)
O            2.34134327498031        0.14354015041791        0.36045560347411
C            0.96686349568140        0.07867434058267        0.26224860784779
C            0.20035155396844        1.24881557535067        0.31905837256354
C           -1.16712969663774        1.20802462774336        0.22098554972031
C           -1.83477785853974       -0.00232039355966        0.06143461106059
C           -3.27459272274051        0.00006877253908       -0.04125865807496
C           -4.19915332633894       -1.01164630201512       -0.17385137723135
C           -5.55566989632793       -0.57429514901318       -0.24274430586622
C           -5.73254546393696        0.77855634262243       -0.16646929989094
S           -4.19457347532865        1.38273128060044       -0.01550134291055
C           -1.09109956155533       -1.17191404433605        0.00301662892499
C            0.29378626196892       -1.16388954891005        0.09988466289417
C            0.99783096032408       -2.42530819031373        0.03065168797345
N            0.40359277215136       -3.57531061862642       -0.12422342252897
C            1.30445271397345       -4.63078154067303       -0.15448222580032
C            0.96735457556726       -5.98399538651409       -0.30262892566907
C            1.95976200869653       -6.93160867824420       -0.31097620337594
C            3.29780562881395       -6.56577752424827       -0.17454735574811
C            3.65059844383667       -5.24588123223979       -0.02799062527115
C            2.65488705453535       -4.28047301326187       -0.01746503022104
S            2.74626896206987       -2.55867762756781        0.14792362530115
H            2.63580661944396        1.06965455502634        0.45698129349668
H            0.69885489030182        2.19330159618495        0.44189698735504
H           -1.75346501540114        2.11043278939060        0.26362982160846
H           -3.91698600464486       -2.05580187844812       -0.22396682859900
H           -6.38455755191340       -1.26533304375337       -0.34931453160447
H           -6.65066795640901        1.34548425241370       -0.19543382373901
H           -1.59241747665519       -2.11323166309638       -0.12314534029298
H           -0.06684489058442       -6.25908952214261       -0.40807614259421
H            1.70256613261869       -7.97183698509745       -0.42415426714961
H            4.06239431356327       -7.32510120883144       -0.18496307864268
H            4.67973123451343       -4.94958073198084        0.07749533299013
