40
 energy: -8.572466554431 gnorm: 0.000714905615 xtb: 6.5.0 (97a52f5)
O            2.17602293260430       -0.08556834809643        0.27812295128206
C            0.79835444847994       -0.01417816127477        0.17153419126606
C            0.16970677107447        0.65307636783726       -0.88505089926217
C           -1.19969388197438        0.70656233545293       -0.96662397122588
C           -1.99911711008325        0.09910773064994        0.00142993418602
C           -3.45568878131854        0.14467807698064       -0.07143119768091
N           -4.26129608802676       -0.35930101001741        0.85784698225731
C           -5.52391059410897       -0.13081721323832        0.44004624028331
C           -6.70980817135045       -0.59011915316916        1.17824928998693
C           -7.87576940285978       -0.98432691762984        0.52346159057577
C           -8.96797498306611       -1.42618895578308        1.23606673426453
C           -8.91499450091440       -1.49224166613147        2.61420871759549
C           -7.76249238048550       -1.12136238260549        3.27815046123449
C           -6.66891079900788       -0.67885369288809        2.56741995135409
C           -5.49802937230169        0.55493005979589       -0.79702121117984
C           -6.61206776167019        1.08331204000125       -1.59108017835424
C           -6.56587060575546        1.03628341264233       -2.98339580872404
C           -7.59775955207933        1.54675723104729       -3.73911695087697
C           -8.69122260298823        2.12068625271046       -3.12107848897025
C           -8.74873523182856        2.18656512803531       -1.74296353386366
C           -7.71885800184508        1.67754238818852       -0.98417840133335
N           -4.17823254376377        0.70427975667639       -1.10895456890549
C           -1.37394388696046       -0.56439044011514        1.05586023619987
C           -0.00569491172798       -0.62175579352221        1.14053124712527
H            2.59377420446362        0.39321031338674       -0.46504635962430
H            0.77380602209649        1.12595516987418       -1.63843521307829
H           -1.66638851609890        1.22474127005461       -1.78489989004841
H           -7.91133570883687       -0.94753365669045       -0.55117718138568
H           -9.86468706656227       -1.72235975018404        0.71677517927788
H           -9.77054632169822       -1.83795595449999        3.17094805998225
H           -7.71811931521530       -1.17928549471015        4.35338649810239
H           -5.76622178015684       -0.39267228768399        3.07848414747132
H           -5.71403921076798        0.58544418991109       -3.46198690021271
H           -7.55160161398666        1.49858485151554       -4.81477436431696
H           -9.49769019633787        2.52003560788336       -3.71402066036847
H           -9.59980403344819        2.63869086425820       -1.26056515564591
H           -7.75471102854841        1.74076416708243        0.08956338337473
H           -3.81175690670535        1.17862889287350       -1.93353683124201
H           -1.98530914903957       -1.03570647539940        1.80522698349461
H            0.47352763280350       -1.13719875322181        1.95366498698302
