68
 energy: -13.397020231789 gnorm: 0.000500526512 xtb: 6.5.0 (97a52f5)
C            0.58164748617076        0.01890518871915       -0.16199041578133
C            2.11171980768211        0.08579153602871        0.01254252737633
C            2.70027117729437        0.86537499500495       -1.17844439085136
C            2.41824036210513        0.83259792681717        1.32387672746110
C            2.74138904368866       -1.31537899919682        0.06533303571250
C            4.13649471868563       -1.43767123351621        0.20114525161981
C            4.76524843894384       -2.65792270040793        0.24729335672513
C            3.99413931645534       -3.81465477512187        0.16353312187432
C            2.60142194867083       -3.71375871170522        0.02387121990520
C            1.97896493188015       -2.46586665142040       -0.02231638640192
C            2.08057747588387       -5.05748941634826       -0.06194503118373
C            0.78198597545933       -5.54906235873570       -0.19454168205418
C            0.56309338932217       -6.91299792567611       -0.24063843554216
C           -0.87490057638829       -7.43568432815785       -0.38837825470441
C           -1.72580329008912       -6.92809474898094        0.79110596936320
C           -1.46846734665655       -6.92180011806373       -1.71331824244862
C           -0.92920932613439       -8.97580158864155       -0.39666309526141
C            1.67006020770740       -7.77853088527169       -0.15145546962937
C            2.95550861500200       -7.31083844332145       -0.02119136871327
C            3.17216734084151       -5.93557918086938        0.02012773994987
N            4.35726649120475       -5.17980392336620        0.16131601593768
C            5.69419648673445       -5.69901247032242        0.25908406332413
C            6.56325300035476       -5.23865439322765        1.24279392587535
C            7.84867976939841       -5.72203153384075        1.32624192682570
C            8.30924256653046       -6.68308559772659        0.42922628624977
C            9.62998618812012       -7.17146965022947        0.51064155849955
C           10.77723716349547       -7.58705376207826        0.57736807262585
C           12.10500430717564       -8.06290529349282        0.65131994755086
C           13.17636030028619       -7.17637458773275        0.71511602783151
C           14.47330978760836       -7.64141799698289        0.78581553181622
C           14.72188944085389       -8.99936987853674        0.79440864724737
C           13.67067830041582       -9.89213944001587        0.73194888912855
C           12.37311293657127       -9.42878774340515        0.66108740542993
C            7.43551608264528       -7.14495470924864       -0.55253370355430
C            6.14997261341809       -6.66141049448705       -0.63584272286069
H            0.15332211725730        1.02019436349052       -0.20251344912607
H            0.11396062460617       -0.50551901606571        0.67087663259595
H            0.31446519266994       -0.49106550861998       -1.08718260967528
H            2.25368025476930        1.85649934179975       -1.25449611057284
H            2.51286931345451        0.33828319685469       -2.11360688137875
H            3.77698264930829        0.99334772364129       -1.07626689886206
H            1.97026847516358        1.82602440854262        1.32044335922471
H            3.49085176348642        0.95170424329622        1.47069792718706
H            2.02150235022455        0.28675486026434        2.17953317884274
H            4.73085596323783       -0.54313610636494        0.26856309817709
H            5.83404565649976       -2.73348838516869        0.33695748967453
H            0.91173747905701       -2.42330077171304       -0.12952384611693
H           -0.03721985865820       -4.85725525618455       -0.25818704973331
H           -1.77127849552681       -5.84002361566220        0.80832303729286
H           -1.30583209730836       -7.26092074181805        1.73993862728193
H           -2.74717802065554       -7.30210901466461        0.72432436900184
H           -1.49634239791240       -5.83320862573896       -1.73881181884965
H           -2.48684956172592       -7.28443122761219       -1.85100821535720
H           -0.87179879263087       -7.26118966334655       -2.55964314707895
H           -0.53027791475628       -9.38734743283458        0.53008655276451
H           -0.36086015666257       -9.38444071414532       -1.23173062893878
H           -1.95666906387960       -9.32524744117587       -0.49653435057170
H            1.51151867962739       -8.84157872063250       -0.18447244448925
H            3.79004546908241       -7.98434883317007        0.05749476915903
H            6.21097303512941       -4.50384239955999        1.94558317860075
H            8.51628887438979       -5.35942581177318        2.08940109457499
H           12.97813703362463       -6.11785213553376        0.70799395618456
H           15.29329674080795       -6.94329414468179        0.83435176120301
H           15.73560398183213       -9.36205862548501        0.84972914643357
H           13.86365686775120      -10.95269435502186        0.73843980362878
H           11.55035386773175      -10.12185788072612        0.61146941077475
H            7.78261902358761       -7.88660694586104       -1.25184076529157
H            5.48521581514423       -7.01089087078376       -1.40649722586989
