42
 energy: -8.784780587959 gnorm: 0.000948605804 xtb: 6.5.0 (97a52f5)
O            2.29495474070361        0.80673291141544        0.03041742580193
C            0.95976901441629        0.58144886014716       -0.01135840312949
C            0.01220108098877        1.63021453154023       -0.03920539422245
C           -1.32349576620556        1.36501312041380       -0.07563395234502
C           -1.81454427121417        0.04160843511098       -0.08799182037985
C           -3.22596977003774       -0.21814233632238       -0.11993275014777
N           -3.89176829132774       -1.41912498434230       -0.11072714231961
C           -5.26213761943382       -1.24216658287404       -0.14858849644425
C           -6.22980836440776       -2.26597214135283       -0.12801564837408
C           -7.67568590256724       -1.97883967504802       -0.17908739135754
C           -8.56158852479130       -2.59347725469342        0.70935974038497
C           -9.91024571730004       -2.32554427360623        0.66101967651396
C          -10.40798654586547       -1.43951017993269       -0.27314040246690
C           -9.55077174334335       -0.82249170322985       -1.16192390478291
C           -8.20140996973111       -1.08771293925808       -1.11808198261954
C           -5.74237434716505       -3.57968160224769       -0.04743172927679
C           -6.40784034005944       -4.83079168233913       -0.04110957079646
C           -5.44716157473784       -5.81903523842075        0.03218372479813
C           -4.18129690883772       -5.20886457190479        0.06533114194492
N           -4.39024026329694       -3.89173360838707        0.01334334750216
B           -3.28032675399890       -2.83346884356873       -0.02673175684570
F           -2.51217555120922       -3.06949855669055       -1.15736506613352
F           -2.54177111542245       -2.94405599636129        1.14223446357320
C           -5.46812803201134        0.16720298563015       -0.16773228165259
C           -4.24983008533598        0.77776633765000       -0.15456185147183
C           -0.86547046723515       -0.99755712494676       -0.06707719370425
C            0.47100725120537       -0.74401023808017       -0.02860483822822
H            2.48010394188211        1.76562927558305        0.04010259492985
H            0.36163846486018        2.64682872491332       -0.03080922106546
H           -2.02136402085085        2.18251448378028       -0.09468209522737
H           -8.17158127451176       -3.26877608487307        1.45094799697764
H          -10.57937486338790       -2.80645056650535        1.35557519165271
H          -11.46452320625291       -1.23029755746804       -0.30893284978879
H           -9.94022108566785       -0.13389738345314       -1.89376628540210
H           -7.53690164173892       -0.62431512256007       -1.82643806024340
H           -7.47190104783076       -4.98108735286620       -0.10773019991433
H           -5.63336121907451       -6.88103727809784        0.05118264282033
H           -3.21370535504340       -5.68158157857276        0.11088701900718
H           -6.42377305882651        0.66268142006075       -0.16536544244941
H           -4.09502848382702        1.84293541641286       -0.16083696939409
H           -1.21027983230906       -2.01279471274907       -0.08646749822501
H            1.18536852080012       -1.54764933190529       -0.01065476749791
