30
 energy: -6.355861661959 gnorm: 0.000279515671 xtb: 6.5.0 (97a52f5)
O            2.25775684185848        0.28884375406793        0.85833750595270
C            0.92384946993456        0.17003923964878        0.48968570780126
C            0.25339186555091        1.17775772642213       -0.20715129260992
C           -1.06523399406247        1.02921598185906       -0.56452659160094
C           -1.77152000428309       -0.12851536819616       -0.24052373593243
N           -3.12152595230393       -0.26224328320353       -0.63444211594927
C           -3.99862105906457       -1.33113373691790       -0.38649483765030
C           -5.28930889419676       -1.25467977105757       -0.94644701485829
C           -6.18497564357961       -2.25077795038693       -0.74822996402588
C           -5.80148998799011       -3.35550593191071        0.02868918835757
C           -6.66776954388228       -4.43704203805477        0.28965882399568
C           -6.25424293411400       -5.48815274738148        1.05461570496739
C           -4.96337610467745       -5.50350250339787        1.58861557189329
C           -4.10404939837674       -4.47078509798950        1.35013747720944
C           -4.49090525400266       -3.36438431995303        0.56415623337156
N           -3.60441230333855       -2.35992351150462        0.35218848394974
C           -1.10194355613706       -1.12817480351751        0.45833663625657
C            0.21539483286988       -0.98720937657794        0.81643735075093
H            2.61758895811588        1.14207347959382        0.54627331214572
H            0.78292967399859        2.07737917019876       -0.46448891880578
H           -1.56900899745932        1.81248660964487       -1.10330000109172
H           -3.49785419798121        0.50634483259432       -1.17918388038325
H           -5.55355981600146       -0.39511496556952       -1.53695029757770
H           -7.17345769553110       -2.20753074589057       -1.17186311597969
H           -7.66147113047863       -4.42133925877743       -0.12339581153593
H           -6.92329401072242       -6.31000855956588        1.24976161634936
H           -4.64688930181404       -6.33768420411212        2.19296922546079
H           -3.10970034059140       -4.48122117480568        1.76050898588376
H           -1.63600808649523       -2.02167273119338        0.71537336975113
H            0.72642656475366       -1.76635871406489        1.35333238390474
