44
 energy: -6.321797260291 gnorm: 0.005309152981 xtb: 6.5.0 (97a52f5)
O            2.28400191740096       -1.62181106535237       -1.57441973913175
C            1.28946803539201       -0.66380004709068       -1.50329644159184
C            1.47507829238511        0.54300080127111       -0.79194228874630
C            0.48405251759014        1.46613750413790       -0.71896090566491
C           -0.78202006844144        1.27216767243261       -1.33432374798352
C           -1.74739009609398        2.31071912811780       -1.17716206327231
C           -3.07325789991769        2.27347207945886       -1.32645771428180
C           -3.98138192248294        1.16744431594102       -1.46892167870717
C           -4.01366660655432        0.36113775259869       -0.37857869727493
O           -5.26962854758297        1.38369253635487       -2.05234408574896
C            0.00658322281114       -4.26836794296669       -4.51002890358433
C            0.90144928763235       -4.77408627349812       -3.47387154957274
C            0.73091865638538       -4.24065923554527       -2.11633108818041
C           -0.46332136605248       -4.66882485823216       -1.27808144055402
C           -0.33333080169806       -4.19110226661146        0.10139601052700
C           -1.74643187101395       -4.25260371931156       -1.86593296984106
C           -8.40255238362234       -3.29310874816445        7.29262244888961
C           -7.47858260018048       -2.64523701054271        8.12622320537099
C           -0.24095550967984       -7.38287433939108        6.03971467082307
C           -2.07669769533413       -0.14590546665108       -2.85884114056974
C           -0.96119955349573        0.08253305129449       -2.10051828543212
C            0.08346533728379       -0.86350012171397       -2.14110795583349
H            3.06887963871385       -1.32813584271380       -1.07032357361207
H            2.41691409611469        0.71802200903639       -0.30356355797883
H            0.65049642007102        2.37291901144348       -0.16342286585714
H           -1.35119815866781        3.25904427632630       -0.84787736270837
H           -5.67405740381229        3.42793791552452        2.87503417278904
H           -5.25801028357984        1.95769222002553       -2.87454904727870
H           -0.68585902880376       -4.99656802198910       -4.88801191576390
H            0.53574970287599       -3.80471696286796       -5.31957978171923
H            1.03598217846278       -5.84519805563928       -3.49222611639521
H            1.64904974765298       -4.09915942809800       -1.56936678652033
H           -3.29231969618282      -10.66946399626736        7.09449935800964
H           -0.45611988152749       -5.77301660537708       -1.23992788843239
H           -0.75837338376498       -3.23602423116414        0.24913176315262
H           -8.15983388806413        0.46250009663786       -0.71144506046762
H           -1.88705582199908       -4.57704943103149       -2.85674481487180
H           -5.62039295994657       -7.44339534895615        6.50433805968912
H           -9.28200359616200       -2.73416072015624        7.14204970797718
H           -6.76420241959589       -2.06109285531264        7.57725360898575
H           -6.95939030987107       -3.32950469232828        8.76882387657724
H           -0.21074868072462       -6.97217343542415        6.97572068461727
H           -2.21160511751335       -1.00880621761375       -3.43919462524308
H           -0.05390150641023       -1.77106344141313       -2.69857345519125
