19
 energy: -3.919114767722 gnorm: 0.000597323972 xtb: 6.5.0 (97a52f5)
O            3.37088640262638       -0.67844575447490        0.00913359907371
C            2.07584468809381       -0.19120360549697        0.00752470674440
C            1.80633884102649        1.20090107748409        0.00609985043550
C            0.53133635352139        1.66872494811600        0.00318272473727
C           -0.56967585260608        0.77874362023409        0.00145615343300
C           -1.90528732328409        1.23307496325159       -0.00187038001275
C           -2.94092657496664        0.34593364903244       -0.00181824961996
C           -2.69506925250862       -1.03263104159468        0.00155046878473
C           -1.41809526803485       -1.50658681197550        0.00453538305834
C           -0.31929775264853       -0.61545442754495        0.00410183577090
C            1.01149896151413       -1.07042724845304        0.00673761158419
H            4.00687261559589        0.06406527726783        0.00632922894177
H            2.63346325156066        1.88802364704585        0.00756735429820
H            0.34116204018262        2.72815496521107        0.00190463850437
H           -2.09548799969868        2.29249286201665       -0.00443916545272
H           -3.95716545635591        0.70469479088471       -0.00426372639985
H           -3.52467084454255       -1.72058747332312        0.00176458891956
H           -1.22959101318891       -2.56626912171320        0.00699466735830
H            1.21358418371349       -2.12509431596798        0.00750870984104
