42
 energy: -9.170737916041 gnorm: 0.000362365563 xtb: 6.5.0 (97a52f5)
O            3.43755150811162       -0.57935632422042        0.45557649404672
C            2.12627029802547       -0.18211012897043        0.29213554510959
C            1.79105082764279        1.18829816302013        0.33050920123646
C            0.51427802060919        1.61455769979597        0.13779389730144
C           -0.52551509213712        0.69412740670600       -0.11598481780501
C           -1.85812853675975        1.11473619036975       -0.31162769792368
C           -2.84863238571745        0.20723450290508       -0.54787433768325
C           -2.55435090728094       -1.15772530695278       -0.60434918169848
C           -1.27529639376643       -1.59240041495635       -0.42232823231862
C           -0.22322057074389       -0.68891716705662       -0.16897391376949
C            1.11610002353396       -1.13279439446497        0.05855651436298
C            1.42907383990113       -2.56200710751831        0.04557801054679
N            0.95613112293647       -3.42378413635832       -0.85299116485646
C            1.39672637505171       -4.64799687463266       -0.51398615896692
C            1.06585036244696       -5.85635272116235       -1.27401251380033
C            0.77916805960152       -5.75435132919469       -2.63475645091775
C            0.46072265612407       -6.86983769813111       -3.37607340738818
C            0.41077465808970       -8.11038135527954       -2.77172883742014
C            0.67178154701319       -8.22920063334942       -1.42084303720743
C            0.99212964508800       -7.11569758051346       -0.67694841908278
C            2.19101475711125       -4.55654032016673        0.65906394207014
C            2.91378652044484       -5.50284534054257        1.41077177968312
C            3.56828165499874       -5.08291696345356        2.52719025364685
C            3.52823915063316       -3.72909895463691        2.91531337093030
C            2.85354915695824       -2.82140772825286        2.16944662922726
N            2.19264573677569       -3.22374112443812        1.02013223199735
H            4.01564589906712        0.20278428229043        0.56403943200651
H            2.57193352792576        1.90442743122131        0.51380286212051
H            0.28184477329786        2.66486282766853        0.17316426928149
H           -2.08432070157302        2.16616274143418       -0.26842126286608
H           -3.86266902159389        0.54139949260951       -0.69387669411593
H           -3.34256371485687       -1.86680745722168       -0.79741241073420
H           -1.04889440978234       -2.64046088748243       -0.48331017422595
H            0.81578747819708       -4.78456870971508       -3.09938413851118
H            0.24954613980202       -6.77471417563833       -4.42865199190119
H            0.16160172533000       -8.98359440862706       -3.35207004960642
H            0.61916472252532       -9.19563241156014       -0.94666631327828
H            1.14750301793925       -7.20789498673973        0.38267580283003
H            2.96957728214652       -6.52654974176168        1.08931122835787
H            4.12669009947544       -5.78827685079076        3.12046223669286
H            4.04752830237655       -3.41531981486768        3.80559846221543
H            2.82433284502788       -1.78046768935820        2.43521904242013
