56
 energy: -11.716294147408 gnorm: 0.000159301784 xtb: 6.5.0 (97a52f5)
O            4.08285472253336       -1.07548018315428       -0.38241315619663
C            2.90701024877981       -0.70010120745808        0.21809332046486
C            2.62961023540928        0.66282669382218        0.48643562478971
C            1.49112469979596        1.04250642053922        1.11857418065843
C            0.53158064223502        0.08513083112888        1.52960366594609
C           -0.65927822834228        0.45937222916506        2.18342527418359
C           -1.57317130326350       -0.48155076286697        2.56097164062752
C           -1.34004695275199       -1.83452727254338        2.30217818625030
C           -0.19660832773358       -2.22725457170228        1.67174032320186
C            0.77255103047695       -1.28460727811703        1.27122403036256
C            1.97731515230204       -1.68095437096547        0.60938180636264
C            2.24104234058951       -3.11475995011439        0.32649160986655
N            2.04095918656408       -3.52139831132412       -0.93600982081278
C            2.12974595064641       -4.81714147799506       -1.19089119116802
C            2.41354729902422       -5.79440685717349       -0.22512074320809
C            2.55174721691339       -5.38214864994927        1.10501145100245
C            2.53204739611156       -4.01599784243875        1.37916449921268
C            2.75761172738107       -3.55995911556032        2.77051880993435
C            3.34442563619829       -2.33113331615962        3.06772798792140
C            3.54218296710616       -1.93155957089759        4.36947621856193
C            3.17395225353401       -2.76043485431608        5.40807832016253
C            2.62609079534230       -3.99761907695008        5.13791188226470
C            2.42380899454067       -4.41205487299100        3.83230341248964
C            1.91231470388179       -5.78694742096104        3.51980991007294
C            2.59432618707318       -6.35351404872858        2.25841175473375
C            2.49630316572022       -7.21270310395694       -0.65614207305424
C            3.31838133346897       -8.14468141524409       -0.02255810308226
C            3.36179013748158       -9.45658397293948       -0.43968396066788
C            2.60414992437641       -9.86538184023067       -1.51673199824569
C            1.82648524323676       -8.94956179821846       -2.19437045118843
C            1.77567755045398       -7.62653708900651       -1.78805137390582
C            1.03821871213995       -6.59653334763895       -2.59328478312669
C            1.80751035922170       -5.26293151499902       -2.59117743055718
H            4.61978740042973       -0.28430596548316       -0.59303125060346
H            3.34960617083736        1.40315794329341        0.18673878570757
H            1.30219723442440        2.08337095202452        1.31721784058628
H           -0.84038680314469        1.50207269221663        2.38003080375752
H           -2.48109813077396       -0.18221615493860        3.05859083031731
H           -2.06968324955946       -2.56905730502622        2.60163751771434
H           -0.02004727113331       -3.26924193869173        1.47201001395689
H            3.66268525976434       -1.69614863059068        2.26134126955902
H            3.98786074509826       -0.97229247925913        4.57674623864922
H            3.32815892819713       -2.44904367917662        6.42834370713196
H            2.36097997636223       -4.65803162420713        5.94572837508133
H            2.07299459254757       -6.44790069247649        4.38056141751009
H            0.82720512169732       -5.73966449742207        3.37203792396865
H            2.11279101618880       -7.29443351437174        1.96687333855028
H            3.63909282284962       -6.59091553667108        2.48799696235787
H            3.96039824158930       -7.82555755327525        0.77846539358438
H            3.99493931565020      -10.16341446523370        0.07154853299429
H            2.63732152135344      -10.89217256106417       -1.84269099026354
H            1.26294907199072       -9.25568978646524       -3.05914740882919
H            0.03824735371433       -6.45544589335618       -2.16717342127905
H            0.88598011046318       -6.95953718654808       -3.61720128975756
H            1.23320086830386       -4.47682738414469       -3.09523057743809
H            2.74154870269016       -5.36576581918465       -3.15458283712447
