58
 energy: -11.455744502148 gnorm: 0.000714823722 xtb: 6.5.0 (97a52f5)
O            3.75162886249141       -0.62552994881376        0.01059391874966
C            2.44232786529383       -0.20918525064345       -0.03525167045322
C            2.14748622299523        1.15944130408360       -0.24143745617670
C            0.86963460547659        1.61243472284331       -0.27239551697229
C           -0.21794861493069        0.72452937000304       -0.10825077432934
C           -1.55000143956890        1.18305393672129       -0.15943528828054
C           -2.59229347906834        0.31404003839319       -0.02872854678583
C           -2.35016083175460       -1.04897562207793        0.15270434544152
C           -1.07262884397147       -1.52317929151257        0.20977325998732
C            0.03654485492346       -0.65502083276357        0.09464957676696
C            1.38969965239994       -1.12453835771290        0.13811773523624
C            1.67689983419797       -2.53017664465751        0.31871661378021
N            2.70173337086833       -3.12125387870839       -0.15179887060372
C            2.91371188270208       -4.50592216683154       -0.05670190296803
C            3.05439983018865       -4.95455414592176        1.41781536443757
C            3.33194281689344       -6.46099481335930        1.53627622616962
C            2.22274585387038       -7.26954251050784        0.84286199494559
C            2.09397942807663       -6.86056558589655       -0.63309886936739
C            1.81897194386082       -5.34608708682955       -0.80295870483965
N            1.69020215316473       -5.02454766859942       -2.16905644382492
C            1.56929205796898       -3.84251942920943       -2.62585073156465
C            1.34818733616794       -3.44897010525235       -3.99850436518445
C            1.28421205739429       -4.40375063533331       -5.03326627329256
O            1.43054166676413       -5.74729968120103       -4.78906329894964
C            1.06301840877078       -3.98744785134673       -6.36520111781870
C            0.90287715788809       -2.67892980712866       -6.67981777555593
C            0.95341407543667       -1.68390760747120       -5.67684671403698
C            0.77742409450280       -0.32204519555497       -5.99806947553397
C            0.82013821947275        0.63630390017728       -5.02951988516099
C            1.04329648969359        0.27488588439163       -3.70093835780505
C            1.22077044140697       -1.03259185336942       -3.35949897121081
C            1.17967137870816       -2.06210359121636       -4.32779683407547
H            4.35412253001754        0.13290648344267       -0.13236336780155
H            2.96283305915980        1.84828303573629       -0.37194339446680
H            0.66768944935329        2.65815373525757       -0.42891559479970
H           -1.73452148417803        2.23297031049501       -0.30884013164877
H           -3.60644874329155        0.67617088881835       -0.07077444213853
H           -3.18117221239325       -1.72928267966764        0.24354230540141
H           -0.91044060954087       -2.57897801450517        0.32788421187750
H            0.94026211592329       -3.13883737832833        0.81174634335567
H            3.86499420899006       -4.70720189719200       -0.57257343224152
H            2.12865455651814       -4.71164894225441        1.94891750130593
H            3.83594769714181       -4.36360731827210        1.91074389396487
H            3.43478480730134       -6.75888459106313        2.58882912673025
H            4.29729763174223       -6.69114307355816        1.06944532557993
H            1.26860668099271       -7.09068859009566        1.35357121124823
H            2.40842068637821       -8.34867515052267        0.93517396582740
H            1.30933543497171       -7.43774511581313       -1.13690462034339
H            3.01955009086840       -7.10179019457148       -1.16592147800828
H            0.85242751190518       -5.11528697789270       -0.33160346082109
H            1.64388674528088       -3.05563567270275       -1.90658769668671
H            1.56089022221278       -5.81497552092187       -3.82245805096604
H            1.02216909755430       -4.74374869965608       -7.12894114153445
H            0.73224548704316       -2.38242616106028       -7.70043119384584
H            0.60525784124906       -0.04745983688410       -7.02469374349695
H            0.68193900918803        1.67363889228124       -5.28690469705564
H            1.07330726876809        1.03526926119920       -2.93801646517894
H            1.39601156456390       -1.27099638696430       -2.32852216496259
