116
 energy: -22.763998448047 gnorm: 0.000802034719 xtb: 6.5.0 (97a52f5)
C            1.53089788079186       -0.45178833628048        0.17357500509232
C            3.03511622518340       -0.12288736020941        0.13635073808041
C            3.57475419220950        0.00260955150663        1.57326096386663
C            3.76851747679480       -1.28782582910712       -0.55710665915267
C            3.24837988494507        1.20689022856425       -0.60414661344164
C            2.64417607865193        2.37512431785767       -0.10528904747177
C            2.79332188701957        3.59623962954825       -0.71554936380948
C            3.57328542493721        3.68197205167164       -1.86571319117590
C            4.17680673426459        2.52682724205982       -2.38499068280602
C            4.01546130042490        1.29422362954711       -1.75164051130880
C            4.87663188109701        2.91310494395870       -3.58744706777293
C            5.63932070220579        2.18434079291423       -4.49954198953295
C            6.20530666985329        2.81991191620050       -5.58853234239188
C            7.04168304200825        1.99901689103171       -6.58312058182737
C            8.23699891480393        1.36880645346021       -5.84398483250804
C            6.16479934135315        0.88783833261004       -7.19056523882693
C            7.58603261339819        2.86919124085685       -7.73265905966253
C            5.99607989071287        4.20304529118453       -5.74660430787937
C            5.24644494252417        4.93600882862248       -4.85842827932449
C            4.67273699306911        4.28981306230041       -3.76654728476667
N            3.87372419100500        4.77599188215225       -2.70771704620425
C            3.36944476242007        6.11218467177684       -2.55411205557600
C            3.45994232743625        6.76938940541830       -1.33020937737780
C            2.92407653481133        8.02258525415971       -1.16559770502669
C            2.26484058270316        8.66709559138792       -2.21557691321982
C            1.67035676038228       10.00590429639322       -2.00937441273971
C            0.41959257092471       10.31874587802842       -2.49759117998466
C           -0.38750499353596        9.38831115954939       -3.14541925565601
N           -1.07893820495567        8.62264644029088       -3.68533226772021
C           -0.12858273634253       11.59162322143546       -2.36991134305729
N           -0.60262179724817       12.65089299893106       -2.27368153571757
C            2.45662281077563       10.99814694865866       -1.24055295723301
C            1.89217034893657       11.71637404221693       -0.18342946718598
C            2.63087601194951       12.63313447617362        0.52236612924615
C            3.96362675597441       12.87218343990835        0.19963803579359
N            4.71694391656928       13.87344179113212        0.90203379663168
C            5.44457122998041       14.92872130383275        0.30761831154044
C            5.65056221857695       15.26464770668509       -1.02790998211395
C            6.37933861994949       16.39040004911608       -1.32609746903399
C            6.92162140019388       17.21878773320259       -0.32552639544140
C            7.72669634153949       18.48473270510006       -0.65940060893936
C            7.00861269910028       19.71359317979424       -0.07064551698112
C            9.13642935352729       18.36777493421248       -0.05016934853821
C            7.87124520845766       18.68978435084919       -2.17996840495041
C            6.70859980501993       16.88510516295318        0.99874804476754
C            5.96961963876178       15.74658505830151        1.31922033315230
C            5.56000491801999       15.18205119154275        2.58328455221498
C            5.79894920373951       15.57054212158565        3.90104665643160
C            5.27983567114538       14.82692138708212        4.94396013375939
C            5.55446328906424       15.27148005410459        6.38947318541187
C            7.07487424781463       15.29288169516381        6.63571202782236
C            4.97537891679832       16.68211265448198        6.60645544321080
C            4.91084617923106       14.31947158639366        7.41630070036281
C            4.51571849029225       13.68356230368315        4.64278481466112
C            4.26892393374962       13.28791676975342        3.35024240571474
C            4.78985253426664       14.04332655412727        2.30282611464029
C            4.53805536872378       12.14622543599215       -0.84030551352113
C            3.80253150463573       11.22281930532617       -1.54162359085511
C            2.20152276609073        8.01249836825685       -3.44834042990215
C            2.74213550384473        6.76129427044366       -3.61367496990145
H            1.35224149366262       -1.40196477551080        0.67589087898539
H            1.12745989704001       -0.52282687133687       -0.83596523912917
H            0.96983389599606        0.31536175228517        0.70495066407170
H            3.45851627327796       -0.93460755992373        2.11649578220119
H            3.04729734141532        0.77649304512492        2.12882544643882
H            4.63357946763504        0.25904409646814        1.56508020089921
H            3.60574368547120       -2.22124863425228       -0.01907732071882
H            4.84295193146569       -1.11066673234161       -0.59070217056256
H            3.40751830796255       -1.42800858265278       -1.57540720129063
H            2.04220202019982        2.30793096367304        0.78395793703013
H            2.31301857933050        4.47683919378247       -0.32875819780105
H            4.48981167094063        0.42917356326124       -2.17432414833626
H            5.77924472824411        1.13099168070769       -4.34348460035591
H            7.90487638757126        0.69434805159128       -5.05615761309049
H            8.85594624985171        2.13954491062004       -5.38595320139961
H            8.86184831101763        0.79729827469612       -6.52954479886299
H            5.79799493470390        0.20794689054866       -6.42310439040442
H            6.72753187738507        0.29927060440861       -7.91443936367834
H            5.30154963204824        1.31428644929104       -7.70035998169057
H            8.23395979298930        3.65908346987572       -7.35436976937274
H            6.77413666055758        3.32564011006010       -8.29777804412860
H            8.17224012622053        2.26803456230825       -8.42711075484170
H            6.43531912919809        4.70969224202203       -6.58706456601896
H            5.10329437858538        5.99386620424159       -4.98722899278417
H            3.96139601558006        6.27943266090174       -0.51388190029807
H            2.99347586642938        8.51988557384963       -0.21351339265850
H            0.86178167689509       11.54093816554408        0.07245076587128
H            2.18080900273613       13.19763023824222        1.32018872003126
H            5.23029271433608       14.64967024252158       -1.80320830834913
H            6.53263252320342       16.64285777969318       -2.35988199671010
H            6.92808457064410       19.64392369804983        1.01311166277032
H            6.00119255433562       19.80140993366708       -0.47604046531181
H            7.54830815707589       20.63035036990117       -0.30591143325916
H            9.09399177644755       18.28600121022634        1.03487878161339
H            9.73997534700885       19.24142695606743       -0.29409492800920
H            9.64888173076736       17.48583330169159       -0.43292889422352
H            6.89750391372015       18.80343675739962       -2.65519850756864
H            8.38822200768936       17.84942483947646       -2.64194615044149
H            8.44797899939454       19.58893212908065       -2.39478198846946
H            7.09769278525645       17.49829766816537        1.78999255469660
H            6.38807495315397       16.44824992866161        4.09083961047373
H            7.57384480136505       15.99962524722504        5.97437933157147
H            7.50687387215185       14.30815561333851        6.46073497227107
H            7.29949764144269       15.58258949393365        7.66172549747146
H            5.43690833799928       17.40713712346538        5.93772107038714
H            5.14287485385219       17.01918207681920        7.62889757534599
H            3.90203028426807       16.69041886940765        6.41991958567103
H            5.30357656300071       13.30842777269531        7.31411092088687
H            3.82853337096641       14.28632939107709        7.29655960004207
H            5.11859835278291       14.65145294081870        8.43312050334614
H            4.10989898862964       13.09465763380990        5.44558063568228
H            3.69246404666641       12.40590969258025        3.13592431112839
H            5.57311009305730       12.31522032380000       -1.08106645659186
H            4.25524995930874       10.66488231128533       -2.34309183616899
H            1.71646529360837        8.50300602647116       -4.27404883196328
H            2.66594121296123        6.25527086327325       -4.56019415633497
