48
 energy: -9.849196469292 gnorm: 0.000696976008 xtb: 6.5.0 (97a52f5)
O            3.49310588551797       -0.44096152428194       -0.10033299392377
C            2.16464585514974       -0.09437863963364       -0.03614547531998
C            1.80943447643402        1.26046256489413        0.16626317339487
C            0.51312263463806        1.65480377621998        0.20724330152992
C           -0.53435070382627        0.71901528697199        0.05262900519528
C           -1.88396361912793        1.12381914349409        0.09783809875567
C           -2.89007447341530        0.21485497938207       -0.03954729414319
C           -2.59202353920325       -1.13607215846646       -0.22344967124359
C           -1.29615348335242       -1.55905737432128       -0.27221830285464
C           -0.22081658292516       -0.64973667013636       -0.14432081068693
C            1.15319862704673       -1.05999195722169       -0.18822316587658
C            1.50332788532068       -2.44531438693327       -0.39243051595014
N            2.64390213460599       -2.95874596015348       -0.15389128745743
C            2.91064846308308       -4.30821753596556       -0.37604825821706
C            4.28939516889581       -4.73002618173427        0.13344679415073
N            4.56678450427733       -6.07856532756601       -0.08635975225594
C            5.61860442008134       -6.63872246654353        0.36544359623044
C            5.99375952258634       -8.02822996127553        0.20319588390407
C            5.21706682282063       -8.90435415654688       -0.58280406976637
O            4.06913238843339       -8.49489527825699       -1.21554102411087
C            5.61223437910898      -10.25120810662348       -0.74172536900377
C            6.73105173944810      -10.73446148506389       -0.15054610222227
C            7.53989919818750       -9.89959913104406        0.65288592493510
C            8.70189106431256      -10.40225648032738        1.27283024002296
C            9.47855907979895       -9.60137998387084        2.05493708156002
C            9.12690558716152       -8.26575319179851        2.25225299919050
C            8.00981366644974       -7.74875649631159        1.66456311769428
C            7.17554201026521       -8.54036273127582        0.83993388048174
H            4.05865718429527        0.34898965967329        0.01783424808125
H            2.59340761636744        1.98705107417804        0.28329900360705
H            0.26609351549754        2.69111550659578        0.36054968125279
H           -2.11111801571545        2.16548951641318        0.24556984076420
H           -3.91810164139184        0.53588437863803       -0.00196478315820
H           -3.39467695321050       -1.84830028649575       -0.32370623808695
H           -1.09654991675848       -2.60707813894744       -0.39811999836384
H            0.74715534278204       -3.11081279068479       -0.76891650126171
H            2.83164641032378       -4.51223459810200       -1.45041312712618
H            2.13574752462448       -4.91115530113715        0.11232476580673
H            4.36317631608256       -4.52306203815530        1.20789809253290
H            5.06545231376080       -4.12533630480362       -0.35103348629456
H            6.28383285657811       -6.00206968109434        0.91791061505161
H            3.96549466528381       -7.55332641488561       -0.97801841564676
H            4.99532891962612      -10.88788038065537       -1.35056346452448
H            7.01540113961798      -11.76384551220351       -0.28478940772395
H            8.96908773319238      -11.43375958299468        1.12038919078879
H           10.36420896801720       -9.99716123496761        2.52417023062901
H            9.74500347183972       -7.64085802773792        2.87608891654632
H            7.76474943741790       -6.71902840824769        1.84563183311525
