58
 energy: -12.490161004904 gnorm: 0.000302739872 xtb: 6.5.0 (97a52f5)
O            3.48611656768373       -0.46044209994654        0.25748621300879
C            2.17002867716516       -0.11663324782552        0.08930038372718
C            1.82214829199023        1.24113335177097       -0.10650737114679
C            0.53399697754246        1.62542610482561       -0.27903138378377
C           -0.51567691413788        0.67745373924139       -0.26634511508865
C           -1.85182297326395        1.07116884763461       -0.47547301907130
C           -2.85761435530257        0.15068993237799       -0.48694745123875
C           -2.57044056984502       -1.19970853306448       -0.29171143236864
C           -1.28629357933880       -1.61133044966038       -0.08485050187608
C           -0.21455056968470       -0.69176661655156       -0.05962792173240
C            1.15437089860597       -1.09492561394750        0.11500728018598
C            1.49523487058974       -2.47977826091943        0.23889739738634
N            2.65596023526441       -2.98730092439001        0.02595981782857
C            2.87469327314396       -4.36245636715789       -0.02734847686857
C            3.94803819362718       -4.89784918149285        0.64404039909345
C            4.19972501098397       -6.28240611249315        0.66171172644808
C            5.29617948624347       -6.83896244163308        1.35725742902023
C            5.50455386240734       -8.18562709962143        1.35967948462568
C            4.63372422976623       -9.04044911141762        0.67228097521292
C            3.56654125030203       -8.53720032970169       -0.00941136908502
C            3.32007518017163       -7.14639788167541       -0.03421008048966
C            2.23377611790996       -6.59072107045809       -0.73566872103274
C            2.00276220966069       -5.23596290412918       -0.76460763559524
N            0.93152453380852       -4.74519372896406       -1.50821824232908
C            0.98878638117261       -3.66950120868444       -2.20850455897914
C           -0.10831791097853       -3.01551961893666       -2.86334702857609
C           -1.36811374715808       -3.64619541813968       -2.98105981046521
O           -1.59975686037230       -4.90082602742203       -2.48298461125053
C           -2.43318161229939       -2.97627254417657       -3.62366299798180
C           -2.28699651282585       -1.72234210745202       -4.11479381233054
C           -1.05477062271556       -1.03743522026668       -3.99631958385564
C           -0.91200226960498        0.27946596429393       -4.47549519925688
C            0.26780293980604        0.94875989713825       -4.33902244337029
C            1.35187659594921        0.33166548257147       -3.71636455053762
C            1.24573716224909       -0.94422826131676       -3.24518515734802
C            0.04551246386112       -1.67886868389182       -3.37229050573912
H            4.05575014995193        0.33401447484362        0.20757318495523
H            2.60601821852973        1.97696045986049       -0.12188692949329
H            0.29404407564592        2.66291305280831       -0.43544617444002
H           -2.06920405661278        2.11334956067374       -0.63381991720810
H           -3.87545979314625        0.46346402788441       -0.65246367118582
H           -3.36975881838066       -1.92228706531737       -0.31496245264486
H           -1.09325934354954       -2.66140260797184        0.03067765105114
H            0.70379890486594       -3.18583202613466        0.41100784356822
H            4.60142406143366       -4.23639843616081        1.18190194533164
H            5.96531735641473       -6.18308641986298        1.88681610274804
H            6.34429183987087       -8.59902814384949        1.89370103488339
H            4.81203837842981      -10.10314118128724        0.68413113370523
H            2.89881616300151       -9.19501212701449       -0.53838744474250
H            1.57397813332413       -7.24022140557413       -1.28009922819379
H            1.94764759824500       -3.18725076064560       -2.23064080437767
H           -0.76647337823962       -5.16601879142113       -2.04651931440240
H           -3.37424557541317       -3.49027645719958       -3.70511878998610
H           -3.11400323177809       -1.22664931002936       -4.59303245172139
H           -1.75346275314234        0.75595702139580       -4.94828592854553
H            0.36321570844431        1.95741774852839       -4.70611599173765
H            2.27632035090886        0.87318134570298       -3.59915380955204
H            2.08777909882180       -1.37618521374702       -2.73771811316167
