62
 energy: -13.587676232331 gnorm: 0.000331457632 xtb: 6.5.0 (97a52f5)
O            3.50417639559692       -0.45607274696945        0.27429812601648
C            2.18937125681403       -0.10102694986771        0.12978318787236
C            1.84419545265846        1.26330326629539       -0.01933368541336
C            0.55628403491210        1.65621392123782       -0.17156087008636
C           -0.49607571628762        0.71103666083925       -0.18588125792536
C           -1.83192150745568        1.11551838150377       -0.37361943153862
C           -2.84045398639337        0.19888066634137       -0.41234654832757
C           -2.55619468246112       -1.15818380863368       -0.26720649609495
C           -1.27235974662542       -1.58022259687712       -0.08082255716350
C           -0.19799420477603       -0.66510304017798       -0.02742209215031
C            1.17029735178450       -1.07680984986760        0.13200070323915
C            1.50636079773515       -2.46340762255048        0.22213314265920
N            2.67311258368300       -2.96789424693635        0.03113019062703
C            2.89250543342597       -4.33846090508222       -0.06051981057882
C            3.96510764367729       -4.89116390337025        0.59416321165012
C            4.22702394309406       -6.27625533776434        0.59764790226564
N            5.28487874626308       -6.73425036876869        1.26942677432181
C            5.44272498889693       -8.06187370501179        1.22648609613533
C            6.53643283768882       -8.64597554040025        1.90777042426315
C            6.74143971165141       -9.99129144141287        1.89867464957393
C            5.86429038780097      -10.83273927968713        1.20693375636704
C            4.79988322537625      -10.31210526100665        0.53764691758969
C            4.54884779411671       -8.91995864363363        0.52017931636189
N            3.49002511448949       -8.45940094285783       -0.15515187045212
C            3.33421875139392       -7.13497089443609       -0.11312574403187
C            2.25174600473111       -6.55068935813240       -0.80192964328390
C            2.02045277701314       -5.19747992394143       -0.81428271626838
N            0.96008916132470       -4.69448578418089       -1.56090856861388
C            1.03230083236851       -3.60510189122194       -2.24000087828312
C           -0.05199157511560       -2.92653663673778       -2.88752612604693
C           -1.31957704936916       -3.53871151447011       -3.02220912766400
O           -1.57083073718518       -4.79719790250390       -2.54670360609680
C           -2.37202683535710       -2.84378193368146       -3.65893150275997
C           -2.20623646861923       -1.58415061082519       -4.12834949345146
C           -0.96566052281262       -0.91751874032766       -3.99188018434027
C           -0.80205769697797        0.40422229477898       -4.44986035494635
C            0.38552057263752        1.05556287127280       -4.29533639479915
C            1.45667881045386        0.41529067834176       -3.67433186299981
C            1.33031807723230       -0.86608582766160       -3.22369143842441
C            0.12200817005957       -1.58307131808675       -3.37154088738138
H            4.07853302891603        0.33544221557464        0.25417754741650
H            2.62983959904431        1.99727271385624       -0.01521338748715
H            0.31859712486231        2.69904575035554       -0.29143201433899
H           -2.04764625459167        2.16325607135197       -0.49256561530517
H           -3.85829261976140        0.52027990134845       -0.56034672100933
H           -3.35743385728129       -1.87758343438864       -0.31197355204727
H           -1.08280741370921       -2.63440805998739       -0.00332484382820
H            0.71026286065344       -3.17284555698023        0.35298897854817
H            4.62136184489213       -4.24466798123845        1.14491969912107
H            7.20881077910673       -7.99524330596488        2.43859754507716
H            7.58166649030787      -10.41285745368093        2.42544340696376
H            6.03479998393265      -11.89675228754449        1.20592233009898
H            4.12317814915140      -10.95600108831439        0.00400934105640
H            1.59479253408750       -7.19322424772399       -1.35630323957565
H            1.99639003830626       -3.13261762568357       -2.24463589443540
H           -0.74481685764396       -5.08637967109920       -2.11256151480189
H           -3.31914355498641       -3.34413772730408       -3.75418909938702
H           -3.02386458414732       -1.07012892351170       -4.60325691864121
H           -1.63336203072595        0.89903785206647       -4.92170121040051
H            0.49725841789446        2.06783535154224       -4.64748920060459
H            2.38760230493963        0.94215729009629       -3.54273971788940
H            2.16337388923427       -1.31600999635587       -2.71698716842247
