40
 energy: -8.468654735538 gnorm: 0.000714914441 xtb: 6.5.0 (97a52f5)
O            3.06775125984381       -1.21347411038759        1.17264658073134
C            1.91601723536405       -0.59733445371453        0.72520092809775
C            1.90869923043311        0.81073888365454        0.55404608826735
C            0.80809488623263        1.46317449744551        0.10924729913213
C           -0.36862824420454        0.75243460859451       -0.21328298764285
C           -1.51989698776646        1.41515726063129       -0.68914581902202
C           -2.64240054993223        0.71525857388030       -1.01478992919540
C           -2.66382760662738       -0.67717233829102       -0.88860414567476
C           -1.57024066189923       -1.34656433004512       -0.42999768755819
C           -0.38745396301211       -0.65741936770091       -0.06096690846723
C            0.76329023735102       -1.32569365007975        0.44071916850692
C            0.73702843738988       -2.82484401267467        0.60861368182883
N            0.90962769824620       -3.51290639712258       -0.68103505850290
C            1.78009999864465       -4.57114049312311       -0.88489810934081
C            1.89762597341629       -5.18048229217611       -2.12430598875320
C            2.77173869170293       -6.24358859898380       -2.31832699792661
C            3.54718881556717       -6.70722458850644       -1.28947809847283
C            3.47746880303656       -6.11080812455242       -0.01204604797254
C            4.28870607919043       -6.53149645801525        1.06359848356143
C            4.22296339709378       -5.89722494333476        2.27511742224642
C            3.35303047036913       -4.83124860726713        2.47146431910171
C            2.51763030819674       -4.39349834961278        1.45496134285919
C            2.57901580577989       -5.03787338891761        0.19110648878931
N            1.64208628922556       -3.33231574767540        1.65155233631704
H            3.77884785891380       -0.55189381518816        1.29438013887479
H            2.80110366270892        1.36312598202962        0.78836696415141
H            0.82050037809504        2.53280806777684       -0.01112994469854
H           -1.49887945463492        2.48636089009005       -0.79299734007275
H           -3.51576776912386        1.23258397368296       -1.37691001821524
H           -3.55296991275137       -1.22145831107000       -1.16227661678100
H           -1.59967324739396       -2.41883588704103       -0.36705574724470
H           -0.26381781298290       -3.10434271530950        0.97102616082513
H            0.53639480183011       -2.99435118933974       -1.47339846390570
H            1.29335983837216       -4.82198811680464       -2.93895996534666
H            2.84103057160516       -6.70414681580912       -3.29018037220411
H            4.22735376248633       -7.52629451717612       -1.44691473270082
H            4.96887536717059       -7.35220162769891        0.91487300790065
H            4.85333193871344       -6.22475911646573        3.08558027104316
H            3.31051896699836       -4.33767220056949        3.42636541729786
H            1.89155544634796       -2.60376817312601        2.32488488015793
