82
 energy: -17.835512005441 gnorm: 0.000602203268 xtb: 6.5.0 (97a52f5)
O            2.30345687716146       -0.15114100445804        0.11077706685787
C            0.92228671846641       -0.05775502695377        0.08404847250157
C            0.26081716180007        1.17418854079289        0.07988466235187
C           -1.11452504102365        1.23072814877730        0.05303715175576
C           -1.86024196779345        0.07363393799505        0.02982039053458
C           -1.23719133229566       -1.18009497284053        0.03392691808841
C           -2.03586336463178       -2.43007030709647        0.00632002931935
C           -1.91225657224272       -3.35766606982015        1.07402810274743
N           -2.57494128157106       -4.52611450513631        1.23545162353328
C           -2.15607496525781       -5.03709628683824        2.41605372762210
C           -2.55705832255408       -6.25424775118122        3.02674551063573
C           -1.98618160802370       -6.62732141886826        4.34386362177012
C           -1.27440301255798       -7.82116783065163        4.51048871511158
C           -0.74970042125216       -8.16327248561705        5.73659997159885
C           -0.91708827572019       -7.33448484442653        6.82315792695029
C           -1.62207484965007       -6.13331515141044        6.69961638600813
O           -1.80863592110425       -5.27606707026049        7.77070439037298
C           -2.14793383148806       -5.80036584029549        5.45429285008702
C           -3.49555860664670       -7.12217912387375        2.41804212503770
C           -3.95521738528311       -8.33767828933787        2.98368140612873
C           -4.85244977022893       -8.89383875051039        2.12477201555936
C           -4.98773514658059       -8.03301284281118        1.00699256677913
N           -4.14772468672435       -6.96085600350295        1.21503207311307
C           -5.81676726337962       -8.28953570638611       -0.11174697438046
C           -6.62756695307967       -9.53170124448837       -0.13055688565395
C           -7.57722391430718       -9.78646373131301        0.86597830991521
C           -8.32626340043766      -10.94146504921401        0.84685499064614
C           -8.15300039711814      -11.86878067322986       -0.15581403487613
C           -7.21465757278943      -11.65327067038437       -1.16986094071502
O           -7.01582774992656      -12.56378500549672       -2.19381183317821
C           -6.46328468304430      -10.48156083391481       -1.13746658977649
C           -5.89145752714641       -7.39335013352034       -1.21033320285096
N           -5.25842807680772       -6.20621991580611       -1.35393099812435
C           -5.66827937166843       -5.70100512807221       -2.54025526944356
C           -5.27910665540479       -4.47580412650694       -3.14322622914727
C           -5.85690895265595       -4.09529828786550       -4.45496721729083
C           -5.03470434588816       -3.85051743089181       -5.56138128723208
C           -5.57540100800405       -3.48916200381850       -6.77486160929917
C           -6.93838343422118       -3.36214967967042       -6.92152220817501
C           -7.79502978424709       -3.59907445727231       -5.84211950645480
O           -9.17005083833217       -3.48231707536631       -5.95500015990062
C           -7.23457987653391       -3.96258516603420       -4.62062450629479
C           -4.35510948798944       -3.59886976294110       -2.52485128785777
C           -3.95006717295808       -2.34873384743095       -3.05603748889466
C           -3.06283134601992       -1.78609255786753       -2.19070395094537
C           -2.90234591953318       -2.66295836154931       -1.08899374367961
N           -3.70356515040657       -3.75962075990385       -1.32146355025776
C           -6.58397570944937       -6.60433361873032       -3.17440336402973
C           -6.73112199949620       -7.64829671465242       -2.34456566886266
C           -1.18625474814015       -4.16822078794257        3.01702213579466
C           -1.04271768108751       -3.12172525959278        2.18975843482387
C            0.15588455893206       -1.21979979551610        0.06027510588367
H            2.70046197901860        0.74132304564507        0.12415709601231
H            0.83890651788818        2.08043637845904        0.09795923836845
H           -1.61114480282789        2.18715409229667        0.05256680545446
H           -2.93553093393305        0.12041701772112        0.02179259736592
H           -1.13159022123787       -8.46503035405031        3.65990715180493
H           -0.20230065443645       -9.08515918194728        5.84558838742760
H           -0.50451946233324       -7.60484686120210        7.77848365782393
H           -1.38239460477189       -5.64035030113202        8.57061059020671
H           -2.70065258514258       -4.88461568632425        5.35832518835214
H           -3.64888228859846       -8.74686501671784        3.93149263824582
H           -5.36406877279620       -9.83126451045786        2.26321678164873
H           -4.02494928908519       -6.16911496296991        0.57381851632357
H           -7.72314802083881       -9.05754887359813        1.64435112757149
H           -9.05416899404042      -11.11979559212346        1.62133794496469
H           -8.74095257127110      -12.76878858343903       -0.16740954996884
H           -7.61160193348492      -13.32991677851153       -2.08252597042709
H           -5.73236515091912      -10.31866806732782       -1.90720520049507
H           -3.96960460958491       -3.96169623537079       -5.45321913619367
H           -4.92698726948759       -3.30507750588228       -7.61574399399992
H           -7.35634248868973       -3.07935559463001       -7.87082029499912
H           -9.41117257703651       -3.21554217165244       -6.86337989821023
H           -7.88862830371383       -4.13147013819100       -3.78569529817864
H           -4.29025263077356       -1.91820717622591       -3.98250460633844
H           -2.56061039638228       -0.84284894502243       -2.32310025515869
H           -3.79786480876906       -4.56938747656864       -0.69803908311198
H           -7.05779465043098       -6.47382118171870       -4.13290925864176
H           -7.36148414418981       -8.50781241122198       -2.49910553074422
H           -0.66996999002486       -4.32668297434606        3.94899734666497
H           -0.40354302611147       -2.26768455161471        2.33886868398375
H            0.66031875034645       -2.16792666817140        0.05069615004029
