40
 energy: -8.573431146827 gnorm: 0.000693882267 xtb: 6.5.0 (97a52f5)
O            1.35077356617836        0.18671962009411        1.96070522096062
C            0.45391396123306        0.02749984581332        0.91678428705502
C            0.32766245650872        0.96871703858499       -0.10882169040256
C           -0.57551173331534        0.77483758553964       -1.13016492843758
C           -1.36862756239831       -0.35279152036984       -1.15651508929897
C           -1.26812510673685       -1.31126753405154       -0.14953581432189
C           -2.08984906191028       -2.51865790680615       -0.15177773917652
N           -2.05024425984620       -3.43923576052982        0.80570741050779
C           -2.93505342810365       -4.39571427563677        0.45711238589932
C           -3.13936301689435       -5.62629719414328        1.23628614413470
C           -3.43920431382251       -6.84173284510941        0.62312094854135
C           -3.61403044994388       -7.98358292445391        1.37248063853996
C           -3.48403255105567       -7.93675935650795        2.74626983218448
C           -3.17196299164540       -6.74439256515641        3.36869091243291
C           -2.99654008996392       -5.60105690860364        2.62118912732487
C           -3.56168510087168       -4.04147114861739       -0.76109153476312
C           -4.63467003322327       -4.72986915082877       -1.48698146378681
C           -4.63103956799307       -4.76209357445413       -2.88016228690729
C           -5.64064885784212       -5.39371209957710       -3.57190337962102
C           -6.67627365706113       -5.99877540245913       -2.88753954643743
C           -6.70217376847025       -5.96685664987542       -1.50732302887742
C           -5.69448378586439       -5.33623554989583       -0.81262754072729
N           -3.00121049448519       -2.85662469309332       -1.13498333668583
C           -0.35600341656662       -1.10479765347243        0.87495341755812
H            1.83883549057658        1.02704561384894        1.85428602831072
H            0.94524462223142        1.84875350449624       -0.09265763385832
H           -0.66347162618964        1.50923076739983       -1.91420356180458
H           -2.07128012113377       -0.49723957518257       -1.95720535975642
H           -3.52527384488322       -6.88055333254001       -0.44874181573371
H           -3.85107677336320       -8.91532982417046        0.88558100387885
H           -3.62230372537267       -8.83081220094550        3.33198833683440
H           -3.06421929084747       -6.70858032958515        4.44036561348856
H           -2.74887631729996       -4.66931351159585        3.09937044678643
H           -3.82044703690483       -4.29316407958267       -3.41041934812651
H           -5.62247689857185       -5.41571062819658       -4.64922786298929
H           -7.46538835885503       -6.49277740102837       -3.43046215857581
H           -7.51217531155271       -6.43582717001060       -0.97313530287220
H           -5.71729435490319       -5.30164016336415        0.26283178411770
H           -3.25619058487804       -2.30737504498476       -1.95506287771296
H           -0.26789260395524       -1.83253600094879        1.65857976231779
