42
 energy: -8.776564123420 gnorm: 0.000723980188 xtb: 6.5.0 (97a52f5)
O            1.97308873156640        0.67503710517512       -0.03706039833427
C            0.62262572977097        0.45850427270719       -0.03168506163493
C           -0.30677586728946        1.51250600728712       -0.00856672944088
C           -1.65323702511898        1.24772917609272       -0.00364224353647
C           -2.11270176636814       -0.05328809662723       -0.01964709840357
C           -1.22256728409846       -1.13775822290080       -0.04167083677621
C           -1.72292492036807       -2.50484505949721       -0.05501911458597
N           -1.02584695470401       -3.67793621969979       -0.02921801707359
C           -1.87478820906206       -4.77883070849012       -0.04679546282315
C           -1.47722260883081       -6.12819309367528       -0.00179836184326
C           -2.45352082720694       -7.23414677781784       -0.02925132701174
C           -2.37333806527534       -8.28428571452599        0.88816639627765
C           -3.28265672785210       -9.31663965372985        0.86123409111794
C           -4.29240890568873       -9.32641618447238       -0.07983264958995
C           -4.38933346171834       -8.29887464386506       -0.99643903812705
C           -3.48191020775379       -7.26471674897421       -0.97402301143780
C           -0.09710555872640       -6.36698046914890        0.07923104175375
C            0.64714027592421       -7.57110045979624        0.10730413561264
C            1.98747234512586       -7.23834846760854        0.16698536926297
C            2.10022586285019       -5.83851573905936        0.17039905243233
N            0.85646063605703       -5.35350640446433        0.11440075396789
B            0.50338732925285       -3.86212765974687        0.04440370636420
F            1.08095903011765       -3.34334070383618       -1.10535727837864
F            0.98118663886015       -3.25351224595838        1.19579151872171
C           -3.18930693583577       -4.24445150782628       -0.07344977188838
C           -3.09429227810254       -2.87924460796274       -0.08248094865723
C            0.13515640131098       -0.85374681362592       -0.04930814054381
H            2.16524982049358        1.63229092966232       -0.02065017848946
H            0.04774633168255        2.52718303926111        0.00516333388590
H           -2.35806375427939        2.06290649651493        0.01343163141905
H           -3.17154793220918       -0.23809565620587       -0.01288957692229
H           -1.59798544820567       -8.26670865789557        1.63423849085124
H           -3.20792363199674      -10.11792951581581        1.57803056376893
H           -5.00410540212942      -10.13535560942321       -0.09907061006532
H           -5.17585382800346       -8.30836873761457       -1.73312315834382
H           -3.54430914288268       -6.47565561702200       -1.70309473009633
H            0.23970804583016       -8.56663893631205        0.06356441271129
H            2.81001861349080       -7.93495550904623        0.19669696452507
H            2.99734089872026       -5.24180063391403        0.19851983933274
H           -4.10144811216266       -4.81600545541736       -0.06212210682281
H           -3.93259263832598       -2.20413357556083       -0.10152149493332
H            0.85177080314082       -1.64968291916190       -0.07062395624416
