65
 energy: -10.954970459890 gnorm: 0.000704897705 xtb: 6.5.0 (97a52f5)
O            2.38819078950625       -0.75599874800751        0.03040381050988
C            1.16896150082256       -0.12844673993921        0.07755701569283
C            1.07121758161252        1.26099710177871        0.16033774403436
C           -0.15410682836560        1.88504366671049        0.17620406237336
C           -1.31515917219392        1.15050746927795        0.11531804353726
C           -1.28158941721799       -0.24244177137144        0.03948146914851
O           -2.43609155244082       -0.98300449523703        0.00321447393109
C           -0.02201414061529       -0.90979795823796        0.01845920292878
C            0.04964891596200       -2.37597738209931       -0.06947598768987
C           -0.53093677046141       -3.07741358372733       -1.16091900647984
C           -1.17715088013918       -2.41381655944878       -2.22481760069402
C           -1.71790471766837       -3.09679925637171       -3.26802830261878
C           -1.64595627639726       -4.50674727397950       -3.33449317347288
N           -2.20704374425869       -5.21104138887048       -4.41092685044462
C           -3.40412558475685       -4.73388183375124       -5.14707910087723
C           -4.63497951798354       -5.57269652185896       -4.77798216924968
C           -4.37007062045183       -7.07520058083434       -4.98680345743635
C           -3.08857065411926       -7.51641065163734       -4.25811723596313
C           -1.90943758045152       -6.63533125437684       -4.67949627119596
C           -0.99349324599385       -5.16794855300389       -2.30269150092222
C           -0.42845466735473       -4.49236357425740       -1.22272348456870
O            0.21652485369282       -5.23064337109468       -0.25606967538309
C            0.78217197712352       -4.55396592718908        0.80106562546115
C            1.43778605903867       -5.29246434645089        1.78424750509217
C            2.01475434539835       -4.69890985362173        2.89880179634091
N            2.67103315011364       -5.46712729380472        3.87331043842347
C            2.71187010076977       -5.08932092714960        5.30721999796857
C            1.84639676377987       -6.04218841688206        6.14269537306652
C            2.24177433864654       -7.51080260280267        5.90325129763448
C            2.23582846181963       -7.84581548715149        4.40150869348884
C            3.11716809513447       -6.85725693820379        3.63311538417094
C            1.91555234461071       -3.29445563444271        3.02037810771197
C            1.28673939908268       -2.55005192300686        2.07287566585623
C            0.71293302518471       -3.14132531651154        0.92776813368437
H            3.11160040330804       -0.10132866792419        0.05651504757183
H            1.97163478447515        1.84639708480059        0.20465036291220
H           -0.20495314627819        2.95991131616394        0.23637572817607
H           -2.26646721843777        1.65060486023208        0.13038419839958
H           -3.21819653710036       -0.40151496201558        0.05510243861368
H           -1.23897575013859       -1.34032965015920       -2.20054391716572
H           -2.17037198950254       -2.55295595841501       -4.07687053190578
H           -3.19469790364313       -4.80660881803280       -6.21823594257868
H           -3.57739097201553       -3.67566630884447       -4.93780798168685
H           -5.51104912907877       -5.24817076625281       -5.35539193681322
H           -4.88808908455168       -5.39282280600286       -3.72661964250593
H           -4.26880139615115       -7.28148831044240       -6.05875002887494
H           -5.23012546054368       -7.67059453249069       -4.65161008604853
H           -2.87212628087643       -8.57695801316486       -4.44378969549451
H           -3.23713517895475       -7.42458093819085       -3.17600702552312
H           -1.72904009797110       -6.73764907356755       -5.75387980128878
H           -0.97379079737977       -6.92671914702710       -4.19441314940186
H           -0.93318376611771       -6.23835857729692       -2.29895268748719
H            1.44961620358571       -6.35903014688917        1.67453089569145
H            2.38033250651683       -4.05548131458316        5.43029942125632
H            3.75383719809671       -5.12279079762985        5.63831021828651
H            0.79410712233018       -5.90207263687605        5.86875890823755
H            1.91299789268256       -5.79045372154279        7.20962151378462
H            1.57324263112358       -8.18699130676452        6.45333310666155
H            3.24326885627018       -7.68950127228819        6.31241302563128
H            1.20993271527685       -7.78530839907095        4.01996012456963
H            2.56187940564747       -8.87969679210694        4.22590916306264
H            3.14191070548193       -7.06657597237082        2.56004777712914
H            4.15442310522211       -6.93407465153115        3.97332644958213
H            2.38424985237614       -2.80359113663136        3.85362504963172
H            1.23363499493184       -1.48143065552062        2.18201897350926
