19
 energy: -3.918840595951 gnorm: 0.000514536333 xtb: 6.5.0 (97a52f5)
O           -1.73032551830289       -2.07328349865170       -0.01282263810847
C           -1.35198872145648       -0.74832984371416       -0.00962005512999
C           -2.27775298486307        0.28129522040179       -0.00878524896363
C           -1.87660386012121        1.61362677601811       -0.00268153871479
C           -0.55159009293282        1.94606051795900        0.00235686804054
C            0.43961039588917        0.94136272246889        0.00142557776729
C            1.81940554237972        1.24619491257290        0.00512214965526
C            2.75029791895121        0.25013923907696        0.00236419742640
C            2.35273730776441       -1.09095988639967       -0.00429505269068
C            1.02748630588126       -1.41684762241033       -0.00799782220195
C            0.04217489371039       -0.41582229276997       -0.00505616594226
H           -2.70586027908523       -2.14292136868174       -0.00369383794796
H           -3.32566523781317        0.04049755115078       -0.01291289821390
H           -2.62281343820677        2.39141801678692       -0.00191585741224
H           -0.24859171758643        2.97877626945280        0.00680365047540
H            2.12545006002751        2.27810967774032        0.00991859174839
H            3.80004596524757        0.49399094705303        0.00529883006372
H            3.09905098420895       -1.86840195392838       -0.00657235003082
H            0.71389247630789       -2.44639538412556       -0.01332639982030
