13
 energy: -2.530655867789 gnorm: 0.000668198061 xtb: 6.5.0 (97a52f5)
O            2.28983718339327       -0.08422173470659        0.01391211232911
C            0.90494723593124       -0.02364822584781        0.00894982957197
C            0.21591370310874        1.19182618752971        0.00515229224655
C           -1.15996360278453        1.21855827501542       -0.00215296820695
C           -1.87946941505080        0.03940038684935       -0.00567234629428
C           -1.21535258473549       -1.17161783005739       -0.00184462657714
C            0.15992002836960       -1.20507852908798        0.00563789965470
H            2.66366697387445        0.81860348971000        0.00200797166622
H            0.77432757903979        2.11082704690783        0.00822226398714
H           -1.67876248777900        2.16337792425865       -0.00503909173446
H           -2.95691174902278        0.06427877838894       -0.01126474782557
H           -1.77586145905754       -2.09225142329091       -0.00458090887795
H            0.68731859471305       -2.14246434566921        0.00866232006067
