40
 energy: -8.562297748546 gnorm: 0.000649783455 xtb: 6.5.0 (97a52f5)
O            1.92983778602994       -0.32954693132579        1.48823887783929
C            0.78830773097619       -0.21668314603099        0.72147294122663
C            0.08017283027769        0.98734308093732        0.67864920302611
C           -1.04720916770391        1.12277553889530       -0.09640796666430
C           -1.50087783144065        0.05959426569509       -0.85200648572345
C           -0.82393992644402       -1.13889907023874       -0.82706994018032
C            0.31741991983075       -1.30783367390821       -0.05051529567846
C            1.00429727594752       -2.59757795390666       -0.04309366028123
N            1.78926811949447       -3.04789391868042        0.92926234479487
C            2.20792402072915       -4.27547091486805        0.55815002843262
C            3.15081337886464       -5.07907396896338        1.35201052247516
C            4.12862945060249       -5.86773819616162        0.74746230095711
C            5.01331346370498       -6.59761725294739        1.50929318296387
C            4.94447815147408       -6.54854742887001        2.88752924341270
C            3.99119418570693       -5.76137610820136        3.50259479308197
C            3.10591624108140       -5.02946635506742        2.74297671027305
C            1.64322519093416       -4.61041652492862       -0.69381981891423
C            1.73689779987447       -5.86253285982675       -1.44985227117228
C            1.73368369639663       -5.84363671559431       -2.84352263465134
C            1.79470544785790       -7.01590191332513       -3.56356737876261
C            1.85352676115648       -8.22972003518551       -2.90782160225964
C            1.84771426544357       -8.26837692216555       -1.52766540966941
C            1.78627875492236       -7.09847105124365       -0.80474770539453
N            0.89394725674128       -3.53051450859886       -1.05850757746110
H            2.10914262907868        0.51205583517653        1.95436046397633
H            0.43189555624167        1.81883653844011        1.26243932236290
H           -1.57737374988430        2.06091290059919       -0.11568305270991
H           -2.38601061647820        0.16681959768234       -1.45732094969840
H           -1.19044785238639       -1.96925075569672       -1.40395251254214
H            4.18980645730172       -5.89394357642477       -0.32657002662618
H            5.76214868731734       -7.20594157237669        1.02886057097278
H            5.63755731324403       -7.12014491776161        3.48271160504115
H            3.94092317809248       -5.71804023773064        4.57833577538843
H            2.36471692064806       -4.40905794711667        3.21599742709172
H            1.69038982937036       -4.89666273168000       -3.35252232744992
H            1.79476393879270       -6.98600119260171       -4.64088379952996
H            1.90006076590501       -9.14629405446505       -3.47261298586706
H            1.88864688431943       -9.21568962315000       -1.01537656424024
H            1.76618386820165       -7.12798212807481        0.27070675877513
H            0.34401138777735       -3.44505357030824       -1.91254210661546
