50
 energy: -10.327997289939 gnorm: 0.000188484136 xtb: 6.5.0 (97a52f5)
O            3.05607943942782       -0.32890566819939       -0.09175175809665
C            1.90204719261261       -0.30126709672912        0.66008232984778
C            1.27011429432495        0.90326738741404        0.98673361836225
C            0.14625428017299        0.92067878824609        1.77597843044471
C           -0.38331258382280       -0.26182667799794        2.26250827419479
C            0.21258208512884       -1.46148577845015        1.95204145429920
C            1.35202966208969       -1.51154557027449        1.15186020053029
C            1.97008174549505       -2.81856851107249        0.80973529491690
N            1.72742938809328       -3.28644224319431       -0.42088577719587
C            2.17029929237489       -4.49860426034959       -0.72104328785738
C            2.86894812828960       -5.32514750743981        0.17000721859913
C            3.05354428040589       -4.86954817943127        1.47997787084429
C            2.65647178219221       -3.56949934031821        1.79029338191444
C            2.92605762280129       -3.04421431719179        3.15002854901170
C            3.16184117407702       -1.69290747479444        3.39621940228778
C            3.41400177008108       -1.23303207503540        4.66852602913742
C            3.45555910922116       -2.11781146337812        5.72526384622225
C            3.26527207355439       -3.46562054699493        5.49989943293515
C            3.01293585631639       -3.94096197915371        4.22394600420562
C            2.90012384777096       -5.41078604680638        3.94621905711146
C            3.54591626780102       -5.76323682521599        2.59121994044411
C            3.32540061984420       -6.65538332385372       -0.30686977704752
C            4.47354375192238       -7.27614728184512        0.18452049025647
C            4.86251395430750       -8.51685661275122       -0.26973521027255
C            4.12815387764146       -9.15761535987325       -1.24500049978803
C            3.02095719803119       -8.53857480336373       -1.78677781170155
C            2.62037584033429       -7.28951224075924       -1.34212880321971
C            1.49970331339239       -6.55031026749141       -2.01382638206228
C            1.81144520381520       -5.04371977687637       -2.07670604204695
H            3.31022029294065        0.58076555247752       -0.34920673912161
H            1.68323106604695        1.82509311784235        0.61822987232289
H           -0.32424698145780        1.85894742866772        2.02078207465048
H           -1.26392364169498       -0.24219427614253        2.88336631188324
H           -0.19853594125524       -2.38400036944901        2.32444751985433
H            3.16510234866931       -1.00480966839974        2.57084042564466
H            3.58232020404517       -0.18196617207793        4.83785393524276
H            3.65264959153247       -1.75924357434259        6.72240078266543
H            3.32426373343067       -4.16284151343481        6.31805014647851
H            3.36510479816829       -5.98027885118792        4.76042997101842
H            1.84128899160400       -5.69418167746435        3.94355414696717
H            3.34002012587377       -6.81097212456580        2.34202748871497
H            4.63419935526423       -5.66596204646192        2.67339041647175
H            5.08847311517157       -6.76068723998155        0.89995510012480
H            5.74660008133846       -8.98443450753580        0.13226646696472
H            4.43168842787653      -10.12908399401384       -1.59957354482353
H            2.46689606999608       -9.01822479376636       -2.57548978637853
H            0.57153818713150       -6.72032141167516       -1.45621223148608
H            1.33177177990776       -6.95749393126978       -3.01848929420624
H            0.95835671940113       -4.48200315681041       -2.47496181892129
H            2.64417120831436       -4.86017173722379       -2.76472672034315
