48
 energy: -10.577794023485 gnorm: 0.000808729070 xtb: 6.5.0 (97a52f5)
O            2.54641560021202       -0.22399089422486       -0.08167536582733
C            1.16689710476048       -0.22087683662702       -0.04689043957508
C            0.44917028465172        0.97790796322002       -0.04126607433898
C           -0.92563480478324        0.98197660929727       -0.05472102514429
C           -1.62489323640802       -0.21014159010850       -0.07954851963323
C           -0.94408067876375       -1.40600687440759       -0.07766319122677
C            0.44603174823812       -1.44101202047515       -0.04461815433344
C            1.13970922734792       -2.73600784838909       -0.01385002406317
N            0.91544431228989       -3.71443959456443       -0.87940276921676
C            1.68395412121730       -4.75374294130233       -0.48103767235872
C            1.80550819602149       -6.05899267852511       -1.08149204431721
C            1.10889807179162       -6.37765420704379       -2.24909529534774
C            1.23095494102736       -7.61717647580370       -2.81806486802780
C            2.05350139104179       -8.56770212964274       -2.23159852655891
C            2.74565611842529       -8.27533385369086       -1.08294508524502
C            2.64545768855058       -7.01798354083261       -0.47072628762077
C            3.36473313772065       -6.68455262447351        0.76315093574760
C            4.18922717781237       -7.61024587504674        1.41806756061973
C            4.84083640526486       -7.29035848765265        2.58228088591103
C            4.69348547556079       -6.03127765786475        3.14417056160421
C            3.89974030935314       -5.10048014822610        2.53140158673853
C            3.23023493233405       -5.39750733742947        1.33982886588803
C            2.38892370706210       -4.43276112179595        0.68215968645412
N            2.04779411377543       -3.12530244157222        0.98460123862925
C            2.42884806939706       -2.34218307358999        2.13614886886762
C            3.71039203297900       -1.81791296757318        2.24262404972575
C            4.07590047402358       -1.08712244589087        3.35109032050020
C            3.16404455837408       -0.86523099295791        4.36403556569779
C            1.88475643679766       -1.37567950161380        4.26461375330798
C            1.51871315090826       -2.10959786323116        3.15821771862787
H            2.88203467278821        0.69507322793009       -0.11039099088231
H            0.98880715781358        1.90793223957040       -0.03391430317980
H           -1.46048024205860        1.91765084924284       -0.05166956436144
H           -2.70234218463353       -0.20269221481747       -0.09742736228265
H           -1.48364831793288       -2.33716224299627       -0.08939263762756
H            0.47498978511347       -5.63067337513822       -2.69352950384478
H            0.68990808309533       -7.85466657108853       -3.71943026463065
H            2.14767298593229       -9.54231806440675       -2.68203676599234
H            3.37526787349581       -9.03109349436702       -0.65059317292114
H            4.31719351940769       -8.59484239753717        1.00728712082357
H            5.46858855164179       -8.02086376723124        3.06597722534749
H            5.20431765593672       -5.78811122188669        4.06163156149151
H            3.78121802650402       -4.12684067509422        2.96762493803914
H            4.40719587360011       -1.98824296896563        1.44044280927656
H            5.07288224742504       -0.68485474019201        3.42571219258909
H            3.44980623041369       -0.29113013912728        5.23023727701687
H            1.17186286681614       -1.19917008095520        5.05333176019744
H            0.52520514765837       -2.51310491090044        3.06940342545570
