37
 energy: -8.132727341339 gnorm: 0.000223197817 xtb: 6.5.0 (97a52f5)
O            2.37460129949995       -0.41469912693396        1.13756477770613
C            1.11988638386383       -0.34393974041740        0.57167388327658
C            0.43028357587839        0.87121360641378        0.51783672209776
C           -0.81065184294006        0.95936872588581       -0.06643541909108
C           -1.39927825250186       -0.16157297384781       -0.61910177472335
C           -0.74292313381514       -1.37018635527893       -0.57905656404118
C            0.50617282034625       -1.49157592761276        0.01512338613969
C            1.15376073192860       -2.80371324897549        0.05232961257426
N            0.80752703150631       -3.78872461635828       -0.77165721282977
C            1.59472764688870       -4.82741542140770       -0.44307166351551
C            1.66108511462332       -6.14962347807965       -1.01618532523892
C            0.83971629068711       -6.50659186332517       -2.08599704366277
C            0.91132476611020       -7.76068613513124       -2.63138792281865
C            1.80689979019174       -8.68645295999684       -2.11791321647358
C            2.62327285255452       -8.35520471254612       -1.06559312110820
C            2.57908172430195       -7.08223355872402       -0.48169026334980
C            3.44350506567240       -6.70231489682688        0.64196465818308
C            4.35743913948608       -7.59154831471859        1.22262634896288
C            5.15397382157130       -7.21068458634606        2.27350801604159
C            5.07296655449781       -5.92532668238584        2.78858920247302
C            4.19104440717910       -5.02859213849767        2.24740116446386
C            3.37209503837137       -5.39799151517709        1.18061335041753
C            2.43624304287119       -4.45977295363110        0.62118149980312
O            2.15045531513511       -3.16466587934218        0.92944287357407
H            2.65179271356823        0.46436460380818        1.46430891101178
H            0.88722660734508        1.74873843307884        0.93883201131722
H           -1.32525603524256        1.90578902801287       -0.09633915763532
H           -2.37182329567993       -0.09004691545419       -1.07758998471863
H           -1.19792207657173       -2.24788920641747       -1.00390285331151
H            0.15099733606110       -5.77797639415624       -2.47611034350176
H            0.27441780348926       -8.02805316357043       -3.45862752803526
H            1.86124916198757       -9.67216871313073       -2.55016681668835
H            3.30928312633644       -9.09156013360989       -0.68912239436979
H            4.43996625202065       -8.59428770831605        0.84541726442530
H            5.84779852558915       -7.91425514626090        2.70358733786897
H            5.70199309343143       -5.63454538835021        3.61395782920809
H            4.11441760375510       -4.02788454237254        2.63654975556817
