46
 energy: -10.286976816280 gnorm: 0.000977890307 xtb: 6.5.0 (97a52f5)
O            2.01150641451434        0.12798169723371       -1.33103586662003
C            0.73391768348488        0.12948608284992       -0.81344395468288
C            0.03926321527298        1.32971632589317       -0.63800046671291
C           -1.22356134991151        1.34793038042276       -0.09701726037122
C           -1.82987508907997        0.16726218675558        0.28478410491017
C           -1.17012305383550       -1.02781849681132        0.11766626842871
C            0.10711068677595       -1.08338041696995       -0.43012906476469
C            0.77811003112523       -2.36800753161713       -0.62583491235587
N            1.66384577235267       -2.60517301462933       -1.58077195849715
C            2.05141033501496       -3.89192329002495       -1.43922367475462
C            3.01070188004741       -4.63426670926010       -2.21542683498203
C            3.67950592908006       -4.05965347809109       -3.28624490078373
C            4.57270616253443       -4.82550145126009       -3.97545763849909
C            4.77186707841178       -6.13449255475691       -3.57991986803660
N            4.16456909721645       -6.71945362523061       -2.56986990362827
C            3.28136866951456       -5.97773399603223       -1.87710173591042
C            2.59796218347553       -6.59520379549010       -0.74212487665718
N            2.89654381520932       -7.87351662983639       -0.44654104871617
C            2.27894854847956       -8.40721849652504        0.58458195901254
C            1.35668729528438       -7.75536970154851        1.37999021655717
C            1.04169020596837       -6.46132547932030        1.09368649599123
C            1.66060131639648       -5.84965286869429        0.01040799860376
C            1.39156363695310       -4.48863441327583       -0.36576931463530
N            0.55847243222098       -3.51568584177879        0.15793872496951
C           -0.27283095607925       -3.63915051416139        1.33181728215352
C            0.14858895606596       -3.11878028301724        2.54746103051633
C           -0.63861757253098       -3.24667729728069        3.66983926300699
C           -1.85533480109415       -3.89447674231346        3.59088580661989
C           -2.28409074881359       -4.41460030121030        2.38598118478428
C           -1.49870810218109       -4.28825621276195        1.26221524621170
H            2.29622440827848        1.03966656008822       -1.54039102027491
H            0.50980739245618        2.25148568374335       -0.92932214375143
H           -1.74165044118540        2.28407472352160        0.03191991439967
H           -2.81950333960199        0.18222753198166        0.71080110430577
H           -1.65153510878721       -1.94324003080270        0.40726480699342
H            3.48717217331418       -3.03485905596323       -3.55209419156219
H            5.11320049870066       -4.41796442035871       -4.81396337958351
H            5.47847507073541       -6.74148862286369       -4.12530611768920
H            2.53009069020746       -9.43258623497496        0.80993614206918
H            0.89536023814306       -8.26142693567471        2.21221261614912
H            0.33115567428325       -5.91896027924396        1.68866082389440
H            1.09847755055460       -2.61585512202396        2.59556999122041
H           -0.30436450887112       -2.84014097677118        4.61011029118049
H           -2.47039457036548       -3.99402239096021        4.47011538141612
H           -3.23374355212040       -4.92013442710810        2.32451437770505
H           -1.82117184761385       -4.69173953381828        0.31824910234246
