110
 energy: -21.134934403350 gnorm: 0.000742769147 xtb: 6.5.0 (97a52f5)
C            0.75008526717923        0.09900027373123        0.46581761520681
C            2.27719978845568        0.16840227269198        0.26852236040403
C            2.56318182067476        0.95680336676029       -1.02321256302550
C            2.88808893941242        0.90732286041740        1.47366665714374
C            2.90207082610547       -1.23146334261984        0.15905762769441
C            4.29137149932981       -1.35190760442641       -0.02398361400329
C            4.91462868046884       -2.57047763833149       -0.13634098298295
C            4.14642194327991       -3.72991435146359       -0.05987610183653
C            2.75626270119455       -3.62907821266127        0.11051037130680
C            2.13938793108966       -2.38297130411041        0.22286811399918
C            2.22275713928079       -4.97059734071683        0.10391249611066
C            0.92638386284590       -5.46720487916065        0.24004344024251
C            0.70234060472582       -6.83101939940458        0.19768394670408
C           -0.73290035394656       -7.35942331920409        0.34968968735755
C           -1.30354977036416       -6.90275952664648        1.70548340347745
C           -1.60268664984066       -6.80217904505144       -0.79249409535072
C           -0.78792895380967       -8.89862570277299        0.29546535780242
C            1.80072826429029       -7.69198273747750        0.01088575322711
C            3.08194250915993       -7.21758893529100       -0.12852731208122
C            3.30270794551205       -5.84505471754758       -0.08159307450077
N            4.49375315357861       -5.09650261781921       -0.16448227067615
C            5.79607645862509       -5.67225693958487       -0.33810782456936
C            6.87392172525900       -5.11583549249009        0.34203480668574
C            8.12393570955560       -5.65024773328664        0.19526169285335
C            8.27548536120477       -6.74003157240422       -0.63898936975205
C            9.59882364644306       -7.36685122330720       -0.84642234719746
O           10.55201559643845       -7.07745530420257       -0.14500727684878
C            9.72816793136211       -8.36566497137010       -1.94830549903954
C            9.83269739091546       -7.96562493782412       -3.26820639331486
C            9.89932650837215       -8.93135704902580       -4.23221306350945
C            9.86196150208405      -10.27425702289760       -3.87471479911602
N            9.88206338115373      -11.26581461305444       -4.91079965382469
C           10.55920045282157      -11.23295043125614       -6.15241455398745
C           11.47760227523470      -10.33148065773930       -6.68663558590426
C           11.98195835968255      -10.55812520922531       -7.94430886565642
C           11.60594234645691      -11.67549454343183       -8.71291383712928
C           12.16363227522152      -11.92428559721166      -10.12336290481978
C           12.93575895017545      -13.25657114584226      -10.13691039357952
C           10.99751043610998      -11.99141952413590      -11.12765643530901
C           13.12154871734077      -10.80243883448543      -10.56921759001190
C           10.71127188776182      -12.57947059630287       -8.17293184605180
C           10.19186652860302      -12.36557245735944       -6.89658273547805
C            9.27467285140362      -13.13419132771808       -6.08970863094139
C            8.59246656272567      -14.32854135982261       -6.32132918737789
C            7.74775440308124      -14.83916835658866       -5.35306178324592
C            6.99815209799719      -16.15184515317754       -5.63016696447245
C            6.10041760616977      -15.97269916431227       -6.86876709194314
C            8.01850241079668      -17.27622249158233       -5.88821405419695
C            6.10839274522166      -16.56749961668008       -4.44251516443467
C            7.59972621988598      -14.13359625579715       -4.14359709053566
C            8.26724883461476      -12.95843214404670       -3.90044609279488
C            9.11520659775906      -12.44810534002824       -4.87775513002833
N            9.75968613145952      -10.67831501672425       -2.60086308271684
C            9.70210952045237       -9.72936669173619       -1.68946011677792
C            7.13580401693888       -7.22982076089987       -1.26396872678386
N            5.92024468714815       -6.74161912151210       -1.13558555134159
H            0.32513636859073        1.09923774019319        0.54488087436413
H            0.49659851213155       -0.43944380756524        1.37841185498871
H            0.26800054378808       -0.39746173429988       -0.37571829206245
H            2.11266661407170        1.94802577280796       -0.98261273800472
H            2.15588142559841        0.43657965600211       -1.88958055185543
H            3.63302971650924        1.08396623702729       -1.18151160738061
H            2.44676361643734        1.89689113084747        1.58824499097562
H            3.96335274799009        1.03442519482188        1.35758767487957
H            2.71368849678036        0.35141400760332        2.39433640906309
H            4.88510861089673       -0.45654899966783       -0.08329367767209
H            5.97442809963212       -2.63837259460005       -0.30252689808261
H            1.07461974753858       -2.34212798169223        0.35161783981849
H            0.11294837480350       -4.77973777852290        0.37827601958801
H           -1.34064687927134       -5.81662380239712        1.77468381882461
H           -0.68718518429099       -7.26997839846441        2.52541005955287
H           -2.31567736197620       -7.27978058930784        1.84899385031532
H           -1.64196242166980       -5.71419355558341       -0.76548874643553
H           -2.62430177780905       -7.17421457473277       -0.72162916314179
H           -1.20161843135666       -7.09884038186312       -1.76112106846450
H           -0.19627934615775       -9.34075575587776        1.09640758694459
H           -0.41624920412805       -9.27156284389073       -0.65832518091166
H           -1.81224099180505       -9.25231518621462        0.40965106826394
H            1.63883933498458       -8.75414791263958       -0.02709644972580
H            3.91566489457381       -7.87791814180390       -0.28173103950491
H            6.70825447863375       -4.28527683169285        1.00491627543165
H            8.97720236776787       -5.24451126637397        0.71110881626353
H            9.84586492342970       -6.91813411053066       -3.51657988970276
H            9.93710132892255       -8.66226377753749       -5.27262629974942
H           11.79783848865539       -9.48522465839849       -6.10616139433633
H           12.68972735884182       -9.85631837737749       -8.34746097640573
H           12.28681296295358      -14.09255283873794       -9.87999460628612
H           13.75384055128192      -13.23434534610197       -9.41769413242470
H           13.35753432628128      -13.45262303731009      -11.12220557092476
H           10.31826836678510      -12.80959706002458      -10.89294517148208
H           11.36492865064689      -12.14526816283992      -12.14179363360589
H           10.42395665123891      -11.06519269635070      -11.11345398220689
H           13.98323113530453      -10.73482777509993       -9.90600207468465
H           12.61597785898795       -9.83742314611094      -10.58252059122188
H           13.49566436843582      -10.99182716164184      -11.57496098008174
H           10.40959060597535      -13.45098605215548       -8.72331210878904
H            8.72892377405075      -14.83799747847462       -7.25686652086949
H            6.68866694211246      -15.73208397414543       -7.75308474040911
H            5.38571375340681      -15.16540413566963       -6.71213197065158
H            5.54033839155463      -16.88328168281075       -7.07917998934275
H            8.63797409965825      -17.05751881225507       -6.75675073934118
H            7.51495984970837      -18.22532661826649       -6.06923652551806
H            8.67745610214417      -17.40197476434780       -5.02970963321395
H            5.35351628283433      -15.81011629698365       -4.23375728789947
H            6.70263327866033      -16.72388785330227       -3.54284991977574
H            5.58745808433162      -17.49984338494068       -4.65855748630725
H            6.94672690528395      -14.52077285018106       -3.38234138588613
H            8.15696753353478      -12.42680607966352       -2.97344677927835
H            9.61094522507472      -10.04624975907396       -0.66287618737897
H            7.24370057257671       -8.08618915365281       -1.90842482130773
