25
 energy: -5.251611084615 gnorm: 0.000443141499 xtb: 6.5.0 (97a52f5)
O            2.16034903511989        0.02194914620448        0.92103211581055
C            0.87426484375282       -0.00461849635475        0.41774786213132
C            0.10661963995004        1.16483711193925        0.39918621173918
C           -1.17464773981292        1.17008375178763       -0.09636684274771
C           -1.73214967072222        0.00678491203040       -0.59192496646323
C           -1.00260856835935       -1.15877077651932       -0.58662426698392
C            0.29686573275312       -1.20031398937875       -0.08963785918170
C            1.00625674500813       -2.46215479782170       -0.09944665033687
N            0.50188962361668       -3.57168775561675       -0.56417541444091
C            1.38385097095375       -4.63764905404172       -0.44633721821742
C            1.12500178468804       -5.95688235164359       -0.84639131572910
C            2.08243263894129       -6.92198864490680       -0.65956041977907
C            3.30963837536660       -6.60805289698334       -0.07800992465858
C            3.58513490988374       -5.32186946836853        0.31920688095597
C            2.62353160806741       -4.33893483584065        0.13681414256535
S            2.64045497559875       -2.65015330910800        0.52310622978608
H            2.39052431677062        0.92464076958089        1.21805416869538
H            0.53412786556280        2.07362969738851        0.78305158522668
H           -1.74747683108288        2.08298256470666       -0.09793978571687
H           -2.73751918522079        0.01320509729940       -0.97976108997186
H           -1.43367452410508       -2.06751581297005       -0.96857271760376
H            0.17583121903927       -6.19236734655403       -1.29334031001240
H            1.88381280224639       -7.93627742949931       -0.96407112855227
H            4.04742525557638       -7.38103451135074        0.06117001576797
H            4.52822417640782       -5.06597157397982        0.76978069771919
