24
 energy: -5.192216556587 gnorm: 0.000755310618 xtb: 6.5.0 (97a52f5)
O            2.19116562796486       -0.02171036459052        0.78984102908833
C            0.88043520754900       -0.03909268078688        0.36912000209490
C            0.14750829630376        1.14771185047693        0.27373947246123
C           -1.15965699603518        1.14461055563642       -0.14996610339572
C           -1.77609333201099       -0.04313376707468       -0.49163214643714
C           -1.07845164300375       -1.22530478078010       -0.40586339247526
C            0.24294864124520       -1.25379910671651        0.01972007162147
C            0.93472126842178       -2.53867932865982        0.09269242081992
N            0.35526731118000       -3.66656516324009       -0.28442201243752
C            1.26471680972052       -4.64573923552351       -0.08475618493961
N            1.12670892652157       -5.96639491793108       -0.33221477055857
C            2.18079716835188       -6.68704636672507       -0.03993763441165
C            3.38542080786923       -6.20861697436719        0.48305378974994
C            3.53875299295975       -4.88021847796807        0.73494684083173
C            2.44808910039475       -4.06300790287459        0.44372810565834
O            2.21901172227490       -2.72082770188477        0.54861761184895
H            2.48266518713107        0.88944308968388        0.98445973373197
H            0.62111031150155        2.07615661931559        0.53780688343880
H           -1.70588201547483        2.07142057473556       -0.21623995635222
H           -2.80088973443334       -0.04315978626917       -0.82510860648883
H           -1.55291941833073       -2.15428975671475       -0.67056683454125
H            2.08803736679058       -7.74670690281969       -0.22851880992686
H            4.19284361465515       -6.89293890954141        0.68615356581390
H            4.44478277845313       -4.46215056538179        1.13573692480396
