36
 energy: -7.066122677425 gnorm: 0.000745732222 xtb: 6.5.0 (97a52f5)
O            2.31995793470836        0.11690135786150        0.24859058693343
C            0.94967629702554        0.03690438741816        0.12694285464506
C            0.16105192981753        1.18414286848001        0.26166212700256
C           -1.20571528157239        1.12707225649398        0.13528255035485
C           -1.82825128511384       -0.07736607138541       -0.13006202743347
C           -1.07853979349026       -1.22292431144632       -0.26646117361538
C            0.30879804564540       -1.19858152575459       -0.14145395478887
C            1.05359984520217       -2.42869548051303       -0.28709446437699
N            2.30417961343399       -2.55652574115801       -0.10087024781383
C            2.96249120182194       -3.77490549273191       -0.25180248562821
C            4.42360278135944       -3.71557583017637        0.19347761944606
N            5.07967933384102       -4.93640194727999        0.05391117111774
C            6.29577254295082       -5.09557793275354        0.38649447844414
C            7.03796250644166       -6.33031779922828        0.27089070207648
C            8.35806012301295       -6.37557996377907        0.71388050076756
C            9.10414078230469       -7.52796954368023        0.62255751968021
C            8.54548253065179       -8.66975140816795        0.08139270144200
C            7.24573726687942       -8.65754038243198       -0.36336428795530
C            6.46196921189347       -7.50199686209481       -0.28102101207089
O            5.15871210944148       -7.51292547394420       -0.72825783488347
H            2.59338032135684        1.03879320314554        0.42840999593061
H            0.64079021300412        2.12440863255301        0.46617456846346
H           -1.79400667816826        2.02366160689240        0.24268960949481
H           -2.90051190479841       -0.11923066845028       -0.22873716746572
H           -1.56706386764775       -2.16041593351279       -0.47010141198423
H            0.50096147285821       -3.31156595551704       -0.56160880556747
H            2.90555529354563       -4.08245818170957       -1.30259102640981
H            2.43251415733513       -4.54279190111535        0.32397666974661
H            4.47796253342005       -3.39933955508682        1.24188521540212
H            4.95780406725086       -2.95435019972893       -0.38722666803690
H            6.81502901671761       -4.24367612031576        0.79249174381963
H            8.79687920252778       -5.48798702546458        1.13655611673851
H           10.12331422097235       -7.54040911108516        0.97230539917045
H            9.13128539164576       -9.57138714719934        0.00832809127165
H            6.81558127452290       -9.54913038385771       -0.78295178300705
H            4.92129758919589       -8.39862636327296       -1.06909587090606
