40
 energy: -8.308815169610 gnorm: 0.000829291695 xtb: 6.5.0 (97a52f5)
O            2.13889789998652        0.12089957939023       -0.24899080778832
C            0.80623959455820        0.03170677209969        0.08196110253641
C           -0.00719632679525        1.17017585796037        0.06143037613409
C           -1.34023213754462        1.09811350798766        0.38302017988211
C           -1.90643165540037       -0.11321108169914        0.73660003103169
C           -1.13383896302925       -1.24900185420062        0.76737618184152
C            0.22388711782153       -1.20984985419323        0.44722202440823
C            0.98193896997543       -2.42888469743416        0.46991376882390
N            2.21596712024956       -2.55111785412205        0.15624459829531
C            2.85016288825405       -3.79197235779611        0.10455144375921
C            4.09334802694930       -3.95538418329011        0.70786804541703
C            4.72726395740820       -5.17570470123562        0.70726670305152
C            4.13134520262306       -6.26437571432457        0.09985490648644
C            2.90943586567925       -6.12599910424329       -0.51569841269103
C            2.25287633943729       -4.89941877593720       -0.54079876101021
N            1.03516838318149       -4.78080991711254       -1.21021167749962
C            0.78814960946053       -3.81508586037733       -2.01214328968058
C           -0.46878417568788       -3.55318067662929       -2.65471595157919
C           -0.60463002910458       -2.40522185768671       -3.43663858159516
C           -1.79542532012950       -2.09638351400294       -4.04870030352676
C           -2.88772271773487       -2.93116402042184       -3.89627345084395
C           -2.78718448993829       -4.06808390221442       -3.13273271939566
C           -1.58979896190200       -4.40853978442891       -2.49333906676647
O           -1.50953336199769       -5.54529577023155       -1.72279830298110
H            2.37367335220800        1.04307775018160       -0.47574315526901
H            0.42658991708679        2.11445001528438       -0.21441768402849
H           -1.94848702200710        1.98743613061989        0.35911684158397
H           -2.95391953003943       -0.16649152516879        0.98423083928979
H           -1.57913774986018       -2.19197072457598        1.03480690362334
H            0.45245553673156       -3.33294242585055        0.71953569403286
H            4.54646632343987       -3.10511443897529        1.18659171261461
H            5.68723278439268       -5.28435853270106        1.18467397892264
H            4.62737364232990       -7.22105026233555        0.10364758103470
H            2.44498687507848       -6.96624574722178       -1.00109074970193
H            1.57840589417026       -3.09971471954734       -2.16775763538529
H            0.24112595430989       -1.74859045504117       -3.54944303861013
H           -1.87976092266669       -1.20245006715932       -4.64471241153757
H           -3.82067627371477       -2.68640866879407       -4.37712493479441
H           -3.64071922220066       -4.71155508218966       -3.01632672897164
H           -2.36795239557911       -6.01479148238380       -1.71739524910964
