37
 energy: -7.690047307325 gnorm: 0.000708523381 xtb: 6.5.0 (97a52f5)
O            1.93951518866307       -0.16231334568510        1.23840965523009
C            0.80423294258895       -0.11564395168163        0.46216636552156
C           -0.03654376180803        1.00250504477714        0.49961303957277
C           -1.17251460375602        1.06447629580637       -0.26901451483969
C           -1.50448633200920        0.01302941337289       -1.10259586982538
C           -0.69529536785979       -1.09701135488042       -1.16115808180110
C            0.46047820844177       -1.19457493744436       -0.39310326046691
N            1.22556288973155       -2.34850890489514       -0.50743562291363
C            2.26829408781531       -2.63837596158797        0.17330973763627
C            3.03227991506241       -3.84751843188574        0.04260704470881
C            4.08478870194049       -4.08967012103138        0.92605415513912
C            4.83690022338172       -5.23720197773811        0.84057253983463
C            4.55897871788759       -6.17409450558110       -0.13701384613521
C            3.52956528374754       -5.96143026697385       -1.02172604883283
C            2.74131612490127       -4.81156015962367       -0.95485472538801
O            1.70818237792991       -4.59599097663857       -1.87797941312992
C            0.98912355150657       -5.69865175580085       -2.38048549715254
C            0.50792548355530       -5.66031449936029       -3.68917940374462
C           -0.20668972958341       -6.71511963493907       -4.20752932099762
C           -0.46351995554655       -7.82702596654679       -3.42973401932783
C           -0.00576725845902       -7.87681858692186       -2.12766028808036
C            0.70988825077738       -6.82454123111874       -1.60534037385089
H            2.02749714628656        0.66153320054881        1.75757828921395
H            0.21953179233290        1.82368946358736        1.14478415559354
H           -1.80696070520032        1.93445994885129       -0.22277142035862
H           -2.39601751661513        0.06298030623452       -1.70602161592333
H           -0.94671050947342       -1.91891347538914       -1.80851409160529
H            2.59072677597533       -1.93691623795935        0.91942639889552
H            4.30400462908652       -3.36124599932306        1.68779305791689
H            5.64505216240473       -5.40564342377871        1.53319723557160
H            5.15379061678167       -7.06996448046163       -0.20826812934711
H            3.32913901167855       -6.67871027815841       -1.79734117984084
H            0.71296503757643       -4.78861250877399       -4.28482160787759
H           -0.56755160842070       -6.67345034568953       -5.22217948217075
H           -1.02342861531241       -8.65275572931392       -3.83707698947934
H           -0.21207934122636       -8.74140655879630       -1.51829602859155
H            1.05234618521608       -6.85135806520043       -0.58635084314224
