17
 energy: -2.590121053320 gnorm: 0.000426592854 xtb: 6.5.0 (97a52f5)
S            1.04396361242504        0.00836311086955        0.12190881785161
C            2.63228896634887       -0.02349285384557       -0.01699063582975
C            3.38371571948934       -1.31798683131744       -0.05796695454774
C            4.36727469937069       -1.35647092694041       -1.24861944623636
C            5.25623665771249       -0.09695862957845       -1.28158460670965
C            4.41575959311045        1.19582406642756       -1.29722629686817
C            3.43073762066077        1.23997391660585       -0.10786259716613
H            2.67088495333077       -2.15145941913796       -0.11481755296339
H            3.92480701094221       -1.44914078885949        0.88699287766697
H            3.79984809244067       -1.42467811689821       -2.18488932126324
H            4.98383121461480       -2.26548632042298       -1.21206525052947
H            5.93704580775161       -0.12636655067622       -2.14396995140194
H            5.90695759378071       -0.09251973117551       -0.39833174320574
H            3.85197092986722        1.25071546333021       -2.23655224612707
H            5.06672924160961        2.08127760869393       -1.29332490909408
H            2.74881456318274        2.09595248536943       -0.19915080786900
H            3.97560372336199        1.38877351755569        0.83229062429316
