43
 energy: -8.980807856632 gnorm: 0.000692148106 xtb: 6.5.0 (97a52f5)
S            3.25584565172629        1.54363386445441        0.93465091641201
P            4.37036901431245        0.10561925259479       -0.07509137887480
C            3.35126724448719       -0.87842170082979       -1.19295248131054
C            2.74607062381300       -2.02589446689853       -0.73390407396376
C            1.95571744415411       -2.77639018739449       -1.58607282849158
C            1.77523535022640       -2.37013905023410       -2.89375433380388
C            2.38251922854532       -1.21663268581434       -3.35009784725045
C            3.17197108130020       -0.46994636558836       -2.49479435100502
C            5.80176086857650        0.78387519751900       -0.94538640408522
C            5.73869162728283        1.78497294186076       -1.99864794117422
C            4.62711776010404        2.62061433137946       -2.10650068573302
C            4.53746842238590        3.55816218012538       -3.11000365730796
C            5.56128790500060        3.68477494973501       -4.02741081987816
C            6.67397421900160        2.87177221203069       -3.93589850781727
C            6.76532478205851        1.93114955353632       -2.93280397227783
C            6.88382161146411        0.16492011460924       -0.43064613279612
C            6.63875974916934       -0.79666964303285        0.67352265324600
C            7.60944949453965       -1.50608123538879        1.35432224395352
C            7.24796679120613       -2.36706217320899        2.41509717502030
C            8.21592942333965       -3.10623609254696        3.13456064087038
C            7.84732308048481       -3.92421910969052        4.15946180666176
C            6.49959480460678       -4.04824548713479        4.52016725129687
C            5.53810335835492       -3.35246939392137        3.85029864841978
C            5.88102700598993       -2.49514995130653        2.78225945345964
C            4.89965097848947       -1.75885008136302        2.07048397930862
C            5.28390002014685       -0.95094574535816        1.05431139935573
H            2.89586147223945       -2.33387475269027        0.28754188980632
H            1.48295129998025       -3.67685978146536       -1.22948926017823
H            1.15998604826919       -2.95410705656209       -3.55870602192156
H            2.24200775322604       -0.89803254812715       -4.36996173152958
H            3.65265749288903        0.43021369352996       -2.83887046781706
H            3.84237390780082        2.52528539439077       -1.37717160780343
H            3.67028249140865        4.19450921617325       -3.17738102819687
H            5.49317421096171        4.41957524314718       -4.81336713609927
H            7.47212040345329        2.97141273052238       -4.65329281434763
H            7.62640953324825        1.28863246670603       -2.87336515167064
H            7.88726395372215        0.37849389169411       -0.76922285225710
H            8.64265490462467       -1.39752997884554        1.08023951756928
H            9.25251044208898       -3.01160063411570        2.86009209317749
H            8.59577039902092       -4.48117914766734        4.69938163791390
H            6.22430288637624       -4.69917297556379        5.33394180480759
H            4.50272268160409       -3.44849186433381        4.12876009100935
H            3.86259257831898       -1.83505512493908        2.34346028532178
