51
 energy: -11.213057162641 gnorm: 0.000429158335 xtb: 6.5.0 (97a52f5)
S            2.22817993900242        0.54578469054150        1.68576282388399
P            3.44918496784358        0.38174911020332        0.01289752995855
C            2.96896394472244        1.43578962200694       -1.35861433820636
C            3.53261741914227        1.21055824084431       -2.59300804797467
C            3.19273938828489        2.02325655646628       -3.66012335692499
C            2.29372630295285        3.05647316095507       -3.47821098814494
C            1.73504397586673        3.27991186774639       -2.23443311272634
C            2.07685735960255        2.46515362367701       -1.16984417368820
C            5.21372181791327        0.66004469338223        0.41683929257998
C            6.00664132281379        1.75237129076065        0.64408394618149
C            7.38868607675860        1.57394593884265        0.69218585987620
C            7.96503876336929        0.32930378854264        0.52497954985676
C            7.18355261246117       -0.82773587374038        0.35115579698757
C            7.65485599432641       -2.20523334262469        0.11946330247633
C            9.03141181294024       -2.57136564351623        0.42084411192354
C            9.83826408330562       -1.79958382315551        1.27894299033537
C           11.16052647426960       -2.08970235556587        1.47750000714360
C           11.73088783070052       -3.18535916000343        0.84821338333744
C           10.95459591518879       -4.01135463414048        0.08031113151419
C            9.58670027438707       -3.75534608376335       -0.11925464866519
C            8.70736725029691       -4.73180451531747       -0.73994237070463
C            9.18915683157553       -5.96906810419992       -1.20115401422622
C            8.33774660009208       -6.96023207548468       -1.60880066917884
C            6.96779305497795       -6.76215853822688       -1.54313905641548
C            6.47078999666657       -5.55916201016815       -1.12102105007177
C            7.31298489482386       -4.49222184243856       -0.76208395298545
C            6.79165629050604       -3.17935239680767       -0.41680281623711
C            5.39192731745939       -2.83616229171943       -0.64227787459949
C            4.28676793641954       -3.39836549112324       -1.28960290517955
C            3.20438650525005       -2.49998934893642       -1.21669090056475
C            3.62087288174570       -1.36710882078127       -0.55642607018302
N            4.93135528367936       -1.59955758259574       -0.20538122942992
C            5.80569855936405       -0.59319928970783        0.28122994385090
H            4.23536754472104        0.40126704174372       -2.71404097613248
H            3.62962588740927        1.85007627456252       -4.62987482794887
H            2.02796006801346        3.69016219463652       -4.30848789525328
H            1.03533874120761        4.08712605439158       -2.09271101854318
H            1.65297511283743        2.62451436109622       -0.19172001140713
H            5.56551712326599        2.73107150983535        0.72325665741096
H            8.02209268789547        2.43532377473769        0.82722372097193
H            9.03478141718392        0.26353389198256        0.44453011940543
H            9.39017095708600       -1.00694275230663        1.85096166257869
H           11.75813622549190       -1.47326675202460        2.12929660268674
H           12.77595939448133       -3.40525220278162        0.99449388618956
H           11.40633755573217       -4.88222672232196       -0.35792495038807
H           10.24679196101902       -6.15724975262813       -1.22374137082350
H            8.72892749310264       -7.90456040985964       -1.95103160699244
H            6.29622672864183       -7.55946074313031       -1.81764803734135
H            5.41089152023650       -5.45753329577520       -0.99658299540738
H            4.27163908091658       -4.29840927745304       -1.87891037933620
H            2.23956082205276       -2.62737255465425       -1.67917667348699
