31
 energy: -6.279371518165 gnorm: 0.000563268712 xtb: 6.5.0 (97a52f5)
C           -3.07174247793792       -0.13118640003988        0.12355735257789
N           -1.91073649655463       -0.09882606411156        0.08873224919698
C           -0.51896517151723       -0.05872246732806        0.05315260653117
C            0.16172617758011        1.11908675334399        0.32562269679550
C            1.53685529234069        1.15927635106067        0.29894438980696
C            2.28233475033825        0.01879055316159       -0.00275942564593
C            3.75953272547159        0.05877223581593       -0.02352514883465
C            4.47084491955268        0.84578442990467        0.88502523284002
C            5.84282657406763        0.88417970093421        0.86842360886776
C            6.57575695900324        0.13760434610254       -0.05999891944484
N            7.98183845921994        0.17824821227127       -0.07821453634371
C            8.73569504773046        1.00438381858112        0.86543643279931
C            8.75835000523518       -0.61205037280722       -1.03390503173035
C            5.86193514671318       -0.65107493135023       -0.96840472788045
C            4.48974737735126       -0.68958285654093       -0.94962876438807
C            1.58981244028272       -1.16074659842453       -0.27898870368687
C            0.21451465521620       -1.19658718353044       -0.25053138333511
H           -0.40679377488950        2.00257754139094        0.55778196063332
H            2.04978810205707        2.08400561209138        0.49798158802468
H            3.92821274339428        1.41516084160940        1.61953623485548
H            6.36427873314001        1.49408806876802        1.58417143238946
H            8.43498894388897        2.04669596000645        0.77317797685486
H            9.80529254042598        0.94395562559635        0.67484457221702
H            8.55149073444190        0.66883401297610        1.88460718643685
H            8.50306128794141       -0.32354212831420       -2.05204559243510
H            8.54788465127456       -1.67152266826286       -0.89989331318499
H            9.82682463494724       -0.45861289399365       -0.89602839336550
H            6.39856920322356       -1.23469753241142       -1.69463344564532
H            3.96092213176276       -1.29146674272741       -1.66810422937613
H            2.14472120628033       -2.05601488170034       -0.49875555925830
H           -0.31295752197949       -2.11072034207411       -0.45943834627249
