113
 energy: -21.490419249138 gnorm: 0.000615681535 xtb: 6.5.0 (97a52f5)
C            1.09831196725071       -0.52652148584117       -0.28156638243354
C            2.59822740048471       -0.43337059568805        0.05534796295746
C            3.05424789226802       -1.79591405725479        0.61354328933533
C            3.40085228489164       -0.14104452003090       -1.22596432919370
C            2.82551083920492        0.70171788303058        1.06626755424524
C            2.45103198381405        2.01383439734721        0.72295811829974
C            2.63303915311664        3.07592542043036        1.57423642657468
C            3.20363177789079        2.84595680898683        2.82397502072984
C            3.59418466055699        1.54609524250706        3.18096524725955
C            3.40169827561854        0.47835775786180        2.30289428895533
C            4.18173519831999        1.62105040561104        4.49681373868066
C            4.75059873302690        0.65168132499376        5.32361819007311
C            5.26031233201796        1.01069682444902        6.55668240124030
C            5.90855417187069       -0.06552867118475        7.44176441184117
C            4.86869180557938       -1.15410706697563        7.76599723358208
C            7.09728469220425       -0.69264743338858        6.68905265267636
C            6.43014452532771        0.51927246721271        8.76877002990424
C            5.17716205042671        2.35846926257907        6.95573198179779
C            4.62009971185376        3.32540482384640        6.15475442904046
C            4.12417795407416        2.96237983327590        4.90471006975731
N            3.52437946845573        3.72636475088413        3.88036153896523
C            3.36145115254310        5.15466953248903        3.87088039535809
C            2.16740662158974        5.73111573792206        3.45154964697529
C            2.03087100399671        7.10242396001290        3.40885749974493
C            3.07522615597288        7.91460008723131        3.78855088847775
S            2.83057034097996        9.69465534508281        3.69303944378229
O            2.55963140066332       10.06113796969685        2.24457482641107
O            1.81810207900892       10.08156615171681        4.75680177654146
C            4.44363255756404       10.33877174535173        4.14639322946723
C            5.51746683053968       10.16228484145140        3.30275913155437
C            6.76086435868461       10.63603444333736        3.66225166338717
C            6.93922509429997       11.30833348951394        4.86707070097702
N            8.23502912388138       11.80224970416023        5.24587234232050
C            8.83421306445553       11.68619733814244        6.51952924029974
C            8.39175536878655       11.08727126839424        7.69710723065389
C            9.19761478894916       11.12893131993976        8.80891916813055
C           10.45965981653192       11.75297876527315        8.79759184338395
C           11.35477883735304       11.81198079251499       10.04554065686934
C           12.66635678023733       11.05561158494162        9.76546819153405
C           11.66673870669024       13.28312568318982       10.38058023628681
C           10.67479195642369       11.17201584031388       11.27156071699857
C           10.90438931946538       12.32631856747091        7.62191570939580
C           10.09810502983410       12.29471926588352        6.48361179667333
C           10.29510888618402       12.79747466179514        5.14585501352726
C           11.36088884662833       13.47134197006651        4.54858888790465
C           11.28088069581297       13.84822338463502        3.22181376009252
C           12.47210132746910       14.57298281816823        2.57575091173489
C           12.73459087849728       15.89134153858485        3.32711168135013
C           13.71933700889244       13.67274069377534        2.65801501473173
C           12.20943047783834       14.90218501223023        1.09329735914640
C           10.10649422631791       13.55012599619214        2.50477039163403
C            9.04821412944037       12.88734725095759        3.07720136185063
C            9.14058365907589       12.49114697707118        4.40963165885622
C            5.84043488569516       11.49154300058697        5.70008982347715
C            4.60259965816061       11.00339727305914        5.34084210185351
C            4.25879861451604        7.35618896339319        4.22223017480736
C            4.40529624371571        5.98709499014804        4.25953105999604
H            0.90628707003484       -1.33972662630246       -0.98082235848815
H            0.73524082227564        0.39436137205236       -0.73525629645604
H            0.51256298836461       -0.71064484822835        0.61843936167910
H            2.88200055584518       -2.58858624852341       -0.11395050662598
H            2.50343306536240       -2.05335575604920        1.51759470552499
H            4.11868711734037       -1.78864584287820        0.84558208283853
H            3.27468960210225       -0.94008123906788       -1.95578284488872
H            4.46350196420199       -0.05319006380840       -1.00218797226943
H            3.07888790788512        0.78924776503657       -1.69147946380749
H            2.01040611682683        2.19058919102528       -0.24265098673781
H            2.35514998547564        4.07405698134289        1.28808215026897
H            3.71118747216844       -0.50346935944303        2.60664920907534
H            4.79245424956656       -0.36718843235873        4.98643447332477
H            4.50837674864263       -1.63994339836389        6.86045216386784
H            4.00966181637360       -0.72470014995351        8.28039464074523
H            5.29710919342569       -1.92301248554684        8.40814950985482
H            6.77330623388816       -1.17431954089050        5.76769224308041
H            7.59325226077605       -1.44518850499825        7.30117815025073
H            7.83212874066938        0.06836778153111        6.42842510821977
H            5.61947019574002        0.95589301329476        9.35106894454533
H            7.18288432351904        1.28641552676206        8.59024225960990
H            6.89107953908137       -0.25763749471219        9.37802646788068
H            5.56107019095343        2.64788878363644        7.91746467638538
H            4.55559476993572        4.34870813370183        6.47798474406580
H            1.34947638528898        5.09226826563926        3.16818760886195
H            1.10897956081610        7.55154476335441        3.07714960441671
H            5.37651040616002        9.64306333563779        2.36910494710605
H            7.61050436406385       10.47371641881722        3.02271213918235
H            7.43661547027250       10.59465828558797        7.72009862161715
H            8.84662069578606       10.66701001794831        9.71419726235421
H           13.21226938452476       11.50462184805225        8.93699033539251
H           12.46389583766702       10.01632369391867        9.50887981357595
H           13.31726801162898       11.06718122967598       10.63911477135742
H           12.20615825950038       13.76959303985815        9.56932898001163
H           12.28020927905171       13.35675508868627       11.27795791574182
H           10.74733215552448       13.84144133164376       10.55369204777678
H           10.46430564314862       10.11725361781222       11.09848070915021
H            9.74035426561661       11.67883010189994       11.51038012938189
H           11.31857832446047       11.23842137518196       12.14815450267966
H           11.86660930986514       12.80069945155677        7.57063820141192
H           12.23758684988188       13.68748043115397        5.13016819801511
H           12.98208050685209       15.70921039261873        4.37184070906814
H           11.85421027588380       16.53247083142814        3.29827025325840
H           13.56437026330714       16.43677216786419        2.87873867668749
H           13.98413756343051       13.45590302116999        3.69180191793270
H           14.57774626773133       14.15180356712922        2.18828811651538
H           13.54318125348750       12.72426149590312        2.15169637256633
H           11.34712624828039       15.55890813296272        0.98376447478847
H           12.03196143603888       13.99562618068565        0.51567192756899
H           13.06710011529317       15.40992479022900        0.65300355433045
H           10.02792975151337       13.84872463442202        1.47484141309630
H            8.15369839776506       12.67943235560437        2.51858081752932
H            5.96646151125804       12.03096031921423        6.62226012575193
H            3.75016061611058       11.13743668178339        5.98573159183239
H            5.07154687598831        7.99231374664518        4.52604458307862
H            5.33662497847413        5.54708949138537        4.57018980555344
