46
 energy: -7.067059091226 gnorm: 0.000473818853 xtb: 6.5.0 (97a52f5)
N            1.22968192033307        0.11677517100027        0.36430082277852
C            2.71095632590322        0.03453638436198        0.10012893952393
C            3.33857898920794        1.28407500683773        0.73234621925647
C            3.28728308203565        2.52020003867132        0.05822930896992
C            3.80441849345298        3.65519282905328        0.60299108639331
C            4.40482079485287        3.63401003245592        1.87881489101951
C            4.95920434998611        4.78415344361365        2.46676133523400
C            5.53690304297254        4.74005412068409        3.71934276584475
O            6.09275229758043        5.85371495106795        4.31573030358508
C            5.55998019887680        3.50589831845536        4.41369733083426
C            5.02879678141926        2.38241129430140        3.86996773511937
C            4.43686969642467        2.41126900769262        2.58564750762804
C            3.88192649492102        1.26041052340740        1.99102018817103
C            3.29595285742886       -1.29778974625801        0.70600596985538
C            2.62950919710364       -2.54311098721646        0.06523707165011
C            2.89512112640792       -2.55610909395262       -1.45998862682745
C            4.42358024089672       -2.61503062251797       -1.71458955535756
C            5.10103872453200       -1.37573941055581       -1.07476214283938
C            4.82615855103637       -1.37031221586507        0.45025658244317
C            4.51800857178998       -0.08480864983984       -1.70522498007845
C            2.98873288969310       -0.02264779422493       -1.44992040934356
C            2.32187503563293       -1.26545582535085       -2.09344334285961
H            1.05363855384287        0.14811186651664        1.37714220729874
H            0.71403644800577       -0.68277861690708       -0.02369283402565
H            0.84167573789855        0.97494081027147       -0.04916009948453
H            2.81250275586599        2.57715462457672       -0.90413799619907
H            3.75661516769751        4.58652382990439        0.06627590259966
H            4.93194053277553        5.71184826324449        1.92792480044096
H            6.01623348288604        6.62884276198001        3.72912107727426
H            6.01209262489193        3.48473993640162        5.38908543662022
H            5.05591715726230        1.45234397452681        4.41040224090249
H            3.89176585332006        0.35173993271015        2.56169061257623
H            3.08828878663772       -1.30831946160976        1.78553904825462
H            1.55498878963189       -2.56229718941486        0.27006133265839
H            3.03730888755433       -3.45360775021975        0.51815649100924
H            2.40920025435539       -3.43790808166121       -1.91262840934967
H            4.62684511684738       -2.64357835962432       -2.79036482493841
H            4.84200839411327       -3.53489651995845       -1.29245403791824
H            6.18936683467030       -1.41549378775876       -1.25428469974603
H            5.33945138864747       -0.52436200530310        0.91797488085350
H            5.24013997757628       -2.27414657702733        0.90995427554527
H            4.72194315926927       -0.06489144638754       -2.78109382573493
H            5.01029601231452        0.79590434672954       -1.27959152608870
H            2.56742477610633        0.87895092397197       -1.91575187856204
H            2.51030898655391       -1.26842819345270       -3.17275475445585
H            1.23442065879066       -1.22967005732357       -1.97839242053419
