21
 energy: -4.347761421000 gnorm: 0.000986088887 xtb: 6.5.0 (97a52f5)
N            1.01240071235205       -0.03424863075414        0.04038794598966
C            2.44863332170476       -0.01738095293130        0.06169574256401
C            3.16128316243641       -1.22355837211724        0.05844473881520
C            4.53177815541795       -1.23822544636660        0.02545337512951
C            5.26120234645437       -0.04268152855665       -0.00832081519530
C            6.68381364591797       -0.02450020151865       -0.04873576024880
C            7.36695109722016        1.13989355861561       -0.08568120521035
C            6.68440838735550        2.41178992127280       -0.08629977118133
O            7.31493797134405        3.47696790878021       -0.12240469343537
C            5.26258075829198        2.38912939896914       -0.04565716063005
C            4.55248744911355        1.19374496094929       -0.00831649854455
C            3.13646103191683        1.16547400433596        0.02554969311030
H            0.59610753275499       -0.71280832127712        0.69074749548346
H            0.57836100132131        0.86357344928501        0.28987282151058
H            0.61725897797784       -0.27051846365841       -0.87860103569445
H            2.61025292105076       -2.14727686499218        0.07907602766754
H            5.06299742135642       -2.17404339695104        0.02279923489601
H            7.21145442203224       -0.96231509606298       -0.05045533238066
H            8.44123538293456        1.14811021681983       -0.11663921052965
H            4.73733285966180        3.32478252178754       -0.04740230778644
H            2.59333144138450        2.09209133437092        0.01751671567069
