52
 energy: -9.664090191607 gnorm: 0.000612376151 xtb: 6.5.0 (97a52f5)
O            1.10096148668985       -0.24316908620693       -0.29924622139084
N            2.35972897437191       -0.20436695157364       -0.17000318933434
C            3.04515444144120        1.01760785311447       -0.00736723826851
C            2.34240406763856        2.25103334494543        0.02627946116497
C            0.99762366654280        2.41753327662702       -0.03973723876644
C            0.36431533063983        3.68220131556598        0.00222573347579
C           -0.97992230905927        3.83535420509024       -0.02125211955794
C           -1.68482337571592        5.09664885950994        0.01794488763729
C           -3.08401448974268        5.10452513815319        0.06114829986213
C           -3.78515101095844        6.28818831527778        0.10047631784616
C           -3.11120497696539        7.49398904353234        0.09572563859289
C           -1.73057419952017        7.51104151392215        0.05076193850387
C           -1.02324524118343        6.33052198536998        0.01284825209358
N            4.37352385485602        1.07661205591114        0.11472475625378
C            5.06654238260893       -0.06338434729586        0.06132965919478
N            6.48392981343905        0.03201126112382        0.15918675400076
C            7.05537852081755        1.19236321683286        0.85222931774571
C            7.37646488291675        2.29698802198126       -0.15153906847431
O            8.25065885867860        1.82661230173651       -1.17149742160174
C            7.70683549460873        0.71203231713058       -1.87154035969835
C            7.36709352727899       -0.44210053420206       -0.92762643385435
C            4.44830180239154       -1.33284889473467       -0.06156224215133
C            3.08824089202238       -1.39320273068817       -0.17997039639700
C            2.31169005347185       -2.67170436619046       -0.26974634194030
C            3.17210649102707       -3.94937249045901       -0.29558773463899
C            4.44380881438339       -3.78347866955361        0.54584737459467
C            5.26500816670818       -2.59234110987101        0.02912951372816
H            2.95045403022905        3.13341140470385        0.12130417782960
H            0.37357422486751        1.54832823919291       -0.12298226109346
H            0.99451871350425        4.55009803383192        0.06500943296934
H           -1.58392741995729        2.94589308804465       -0.06565306434637
H           -3.61249904890109        4.16630686353845        0.06637005242093
H           -4.86239737375425        6.27451189355251        0.13609371482956
H           -3.66153229466930        8.42009294660957        0.12636910285210
H           -1.20554024294164        8.45258625293529        0.04463296471062
H            0.05086424362467        6.36081814661107       -0.02751515077348
H            7.96351839374482        0.87330305408873        1.37294858055189
H            6.34859684178031        1.53215163823373        1.61717870567292
H            7.85263215426901        3.16213424383974        0.32801223926757
H            6.46142051861636        2.65620478250137       -0.63683185289307
H            8.43687434583015        0.41189865925782       -2.63459219413738
H            6.81078747335416        1.05705072254294       -2.40091336526169
H            8.27697226331516       -0.85404946071048       -0.48110708620997
H            6.87980333401888       -1.25430217819928       -1.47299451836847
H            1.66963774454963       -2.62230468993963       -1.15773819445902
H            1.62234888331176       -2.70692912465112        0.58191210787724
H            3.45563270690220       -4.17720943824401       -1.33052748911994
H            2.59159905365895       -4.81710832244702        0.04616252587899
H            5.04120766736754       -4.70573345415071        0.54568806735927
H            4.16745436932774       -3.60750902185820        1.59261752334379
H            5.65604707027620       -2.83656360690923       -0.96452245829757
H            6.13827642828658       -2.41598551741484        0.66903654078052
