54
 energy: -10.272702932806 gnorm: 0.000686324612 xtb: 6.5.0 (97a52f5)
O            1.02414384991453       -0.27385606758636       -0.13055638557242
N            2.28991896390874       -0.20202863165709       -0.10341234681342
C            2.95580223330152        1.03856911769726       -0.07737677768497
C            2.22711974765237        2.26442840218119       -0.09390594156377
C            0.88377169698120        2.39783616547267       -0.11450127639543
C            0.16101166404824        3.64530385444332       -0.14486707890514
C           -1.25619228820572        3.62286241672561       -0.12427535475297
C           -1.98367450093530        4.77023867667319       -0.15793434999400
C           -1.34413481237911        6.03132085849303       -0.21772946622499
C           -2.06688092549313        7.24090095674521       -0.26265041188416
C           -1.41531011693404        8.43916514287979       -0.32546791512099
C           -0.01730655087248        8.48618795164440       -0.34549483085862
C            0.71336097412550        7.33604101483280       -0.30251936671140
C            0.07218446637747        6.07681206440541       -0.23843412997414
C            0.79814269106948        4.87226749590052       -0.20037967752965
N            4.28382919335834        1.13315186585373       -0.02863928811800
C            4.99925635545857        0.00454263446749       -0.05402422681569
N            6.41864618658096        0.13118349341128       -0.04303224390454
C            7.00998637162996        1.31333293891915        0.59393595155745
C            7.27403493218991        2.39569708642402       -0.44948413443478
O            8.10311584323434        1.90709393253430       -1.49794817565572
C            7.53469797543978        0.77460683504331       -2.14784192063578
C            7.24478315543174       -0.36116479918948       -1.16565018533723
C            4.40612142316029       -1.28071193046195       -0.06771658449728
C            3.04225157474965       -1.37406071650936       -0.08649458194832
C            2.29197535415776       -2.66948953004055       -0.03357699556904
C            3.17821629249017       -3.92757349361377       -0.08971701950090
C            4.50816959325823       -3.70581479839038        0.64177408138402
C            5.26012058785463       -2.51514666106386        0.02707897885754
H            2.83024082536563        3.15305949040049       -0.08611177130668
H            0.29051133270017        1.50387018735409       -0.11026273210739
H           -1.75677510315937        2.67086531379374       -0.07996552266945
H           -3.05914934994979        4.73319024355988       -0.14087042749169
H           -3.14247363090083        7.20661447245470       -0.24855959780151
H           -1.97891148179202        9.35693291844720       -0.36159738879588
H            0.48255106934733        9.43952123450744       -0.39640972480263
H            1.78885476089839        7.37321434775615       -0.31897178471997
H            1.87002946092455        4.92336981945305       -0.22297727846319
H            7.94402779960458        1.01438689409022        1.07943953052052
H            6.33614436477398        1.66589438864755        1.38235345745980
H            7.76542662913373        3.27511337895387       -0.01339787034024
H            6.33443406452294        2.73702277358712       -0.89925622604078
H            8.23163620380730        0.46172197921125       -2.93620149755228
H            6.61456059465808        1.10387666952540       -2.64429484084501
H            8.17635135218488       -0.76658550183771       -0.76010848209931
H            6.72778842376449       -1.18208661552571       -1.66942781282209
H            1.55977045051084       -2.67668548174510       -0.85030576187188
H            1.69668717863499       -2.67722275915201        0.88692598537093
H            3.38292885716335       -4.18289980577144       -1.13669434131804
H            2.64811037332278       -4.79583350307080        0.32513602588425
H            5.12513267509308       -4.61489721550121        0.62082460192074
H            4.31173779863994       -3.50384866604178        1.70179615370930
H            5.60082511840265       -2.79075397198687       -0.97689121629276
H            6.16384830079156       -2.28778686737723        0.60568017707082
