48
 energy: -8.883611333251 gnorm: 0.000495407054 xtb: 6.5.0 (97a52f5)
O            1.04728429674621       -0.27196514716346       -0.13886932583845
N            2.31319714912449       -0.26797595088429       -0.03083938984398
C            3.03446238269113        0.93270200157984        0.10828508061626
C            2.36580051582568        2.19203066052587        0.15033432254589
C            1.03203220196203        2.39353650391502        0.10293198942505
C            0.37119338379566        3.67693702139612        0.14980571970557
C           -1.02649976897704        3.73106610175863        0.13105397141271
C           -1.68886550886547        4.93640558291746        0.17337711543060
C           -0.97544967529776        6.11745968600619        0.23398433626774
C            0.40532596483216        6.08788937592877        0.25266320713997
C            1.07390690873835        4.88544321056536        0.21171845230009
N            4.36326473224233        0.95766354765843        0.21048711182846
C            5.02234080224708       -0.20277935978660        0.15942234384542
N            6.44524319854349       -0.15032455727166        0.24225020639724
C            7.05953163245755        0.97538408048850        0.95483655923439
C            7.41520866004738        2.08780346949584       -0.02827078679973
O            8.26411755356601        1.60675815988987       -1.06439842515789
C            7.67514919641461        0.52874822969462       -1.78466240168331
C            7.29799147244244       -0.63233767630305       -0.86414381073654
C            4.36919712992547       -1.45322330456751        0.05657950858661
C            3.00472424794909       -1.47545134222725       -0.03960415205201
C            2.19197321202677       -2.73223568889020       -0.10290061686041
C            3.01867078947680       -4.03033995042284       -0.16370701341899
C            4.31089599374284       -3.90857432058398        0.65392930270747
C            5.15513909358136       -2.73278975459836        0.13874207251967
H            3.01028833196439        3.04673585497494        0.23731315161102
H            0.39608466684051        1.53277879682758        0.02637747527379
H           -1.58547680006777        2.81219843538631        0.08443122479215
H           -2.76631701081822        4.95855923373602        0.15934191543205
H           -1.49575635827536        7.06065649062109        0.26636059132017
H            0.96123937856879        7.01014996815667        0.29841808791898
H            2.14881838766056        4.88025537303256        0.22453431133931
H            7.95786781991672        0.61414549684773        1.46470913798328
H            6.36787037988471        1.32438255321004        1.72928307345191
H            7.92858577399335        2.92302311705636        0.46553880842254
H            6.51147503246256        2.49239529213723       -0.49858241530120
H            8.39002709815574        0.21818889455970       -2.55774249352379
H            6.79032801006189        0.91847455050583       -2.30130555519523
H            8.19429871269073       -1.09156783155401       -0.43708870997788
H            6.77165191318062       -1.41072493246030       -1.42254749248660
H            1.51914067899449       -2.66336592011591       -0.96648799584883
H            1.53418261196510       -2.75287852686902        0.77379409041824
H            3.27473471637909       -4.25097558033797       -1.20727062131299
H            2.42306794434239       -4.88748025669356        0.17889781496310
H            4.88334886382666       -4.84614773929310        0.62762467259095
H            4.06063355638538       -3.74204764255164        1.70872571665776
H            5.53856095524327       -2.98090656263305       -0.85685574850490
H            6.03425977140310       -2.57829964364817        0.77636558239502
