47
 energy: -9.388997803324 gnorm: 0.000346508817 xtb: 6.5.0 (97a52f5)
O            0.97905197638125       -0.14848159750503        0.29379405240578
N            2.24188353862263       -0.07908075606442        0.20269802688414
C            2.90622406025930        1.15836339917036        0.12543378693267
C            2.18441697484854        2.38807272058305        0.15462849214491
C            0.84933854331435        2.53082505377503        0.28948408879261
C            0.13577829648078        3.78647118746630        0.31813464396407
C           -1.24922790212692        3.78593944636921        0.51421491484937
C           -1.96020552211071        4.96376828611116        0.54518468754426
C           -1.30989582003655        6.17114397818486        0.38078010322082
C            0.05725388984172        6.19518696072532        0.18488350085915
C            0.77444120473771        5.02063184712162        0.15365961891840
N            4.23140340992032        1.24493024862877        0.01369904734413
C            4.94744943628924        0.12093266739348       -0.01985370068125
N            6.34447859982045        0.21814545133833       -0.18068506918641
C            7.14412748207672        1.37547446982922       -0.18120866252847
C            8.51550112175507        1.27003337606776       -0.41976155922435
C            9.32092490507080        2.38641817790717       -0.40831744511365
C            8.77917350320643        3.63225467799283       -0.15599858746635
C            7.42449932345387        3.75689301015092        0.08249274729412
C            6.61963697648863        2.64197439600601        0.06782002711048
C            4.35760602092744       -1.16172877892793        0.07590994942796
C            2.99547333755984       -1.24929912979129        0.17798385300707
C            2.25596571504570       -2.54487167164376        0.26828568898071
C            3.09269039487460       -3.75270505511024       -0.17941058756851
C            4.49322836949759       -3.69617052217409        0.44065204921689
C            5.22506173989047       -2.39567473880169        0.06143715222557
H            2.78709242777141        3.27270447151923        0.06693489663478
H            0.25615339893443        1.64216272804686        0.38775694897411
H           -1.75886135265743        2.84650015380095        0.64320605066507
H           -3.02686162970481        4.94436221137457        0.69835035692390
H           -1.86806282627353        7.09274765646001        0.40471492063521
H            0.56394492827973        7.13767175768991        0.05568220138430
H            1.83723376912745        5.05675288963759       -0.00384048192132
H            6.84591344254796       -0.64595221544615       -0.35310273433279
H            8.93851668178137        0.29992994609416       -0.61399173787898
H           10.37771125637125        2.28835310081830       -0.59572136377913
H            9.41157333306992        4.50472954682427       -0.14613907739025
H            6.99864443122923        4.72737413754200        0.27882226247808
H            5.56695796143606        2.73794404297652        0.24641133014742
H            1.33911517707556       -2.46435801242799       -0.32903023361893
H            1.92085843280200       -2.68384667554849        1.30265324461701
H            3.17814843388956       -3.75325863731553       -1.27299405610928
H            2.58922221621737       -4.69469589337711        0.07919966499092
H            5.08285687416874       -4.57419237226065        0.14230535941075
H            4.40614369235828       -3.75999555124780        1.53235178531967
H            5.66124714012775       -2.50254962413599       -0.93852208950474
H            6.06888263537812       -2.24071076582487        0.74485193299487
