38
 energy: -9.718990889236 gnorm: 0.000646164444 xtb: 6.5.0 (97a52f5)
O            0.98534814038813        0.47090662230317       -0.24573062700173
C            2.19803386420613        0.28056682027693       -0.10170648663536
C            2.77491590345447       -1.05347894367886        0.03202985553613
C            1.95860078876556       -2.24413414041786        0.00357769874916
N            0.66050620524272       -2.27353403523638       -0.14599508695956
C            0.16466432797756       -3.56779214465467       -0.13704682028219
C           -1.18541760066954       -3.92762614443127       -0.28524706633760
C           -1.54313747439181       -5.25387582484413       -0.25545208514466
C           -0.58107353915503       -6.24911260594686       -0.07887292753611
C            0.74702482518378       -5.91866928707584        0.06730741160622
C            1.12043368484275       -4.58093715134261        0.03588396551474
S            2.69385194472869       -3.85484268367316        0.18028021434578
C            4.13944984755835       -1.18738995969672        0.19016247358198
C            5.02079564339616       -0.09626411914436        0.22784231036374
C            6.42158025812588       -0.26716325666784        0.38827179407275
C            7.26330399793694        0.79995694540993        0.42495152283531
C            6.76993638882908        2.13323452814519        0.30427413893967
C            7.61114179174014        3.25179913100825        0.34375745322634
C            7.09690153023926        4.52943392174755        0.22395712844220
C            5.74185837349567        4.73323190941702        0.06144955605922
C            4.85347763060507        3.64774454738979        0.01552171422246
C            3.45084179183915        3.81183819914870       -0.14765658568593
C            2.61749571891665        2.73317968654169       -0.18279850061412
C            3.10643193932002        1.41832617301729       -0.06080965171884
C            4.49317914017420        1.21642805931581        0.10120632756287
C            5.37359007019865        2.33399461998691        0.13938301900437
H           -1.92253068173339       -3.15508172636361       -0.41972170261702
H           -2.57969092217887       -5.52982769448334       -0.36975446508583
H           -0.88094689998264       -7.28517608567390       -0.05770138202188
H            1.50036279178348       -6.67669487903632        0.20194933240386
H            4.55178300632219       -2.17493375862472        0.28803860093701
H            6.81140923973905       -1.26714386683816        0.48097914336723
H            8.32302968592250        0.65095295741595        0.54767378456239
H            8.67073869606733        3.10419146293426        0.47060117552545
H            7.76316285353619        5.37727153445968        0.25857551422682
H            5.35082043899951        5.73282218844530       -0.03074073654424
H            3.05360624321449        4.80843812270855       -0.24312020944237
H            1.55692035535645        2.87264087815957       -0.30622980145796
