18
 energy: -4.969888914378 gnorm: 0.000538908032 xtb: 6.5.0 (97a52f5)
O            3.29985831315157        0.60865643237901       -0.01701257690594
C            2.11053943791934        0.19046838000560       -0.01408050929092
C            1.81347493222785       -1.22225131131789       -0.01189779571097
C            0.53641835369536       -1.68218474443602       -0.00608589679776
C           -0.56962599647741       -0.78452730024579       -0.00240810819007
C           -1.90608038421849       -1.23714873332793        0.00368686714808
C           -2.94805764788686       -0.34640667348968        0.00438783987637
C           -2.70303664499969        1.03447331494700       -0.00104760670654
C           -1.42208467795235        1.51129973635516       -0.00669425604054
C           -0.31583339862814        0.61844605202926       -0.00678889420606
C            1.00968391322963        1.07722600111902       -0.01213007315944
H            2.64317405791315       -1.91073825681351       -0.01529896546364
H            0.34055060285304       -2.74387613819175       -0.00419231900593
H           -2.09743755983462       -2.30000317176646        0.00759967502100
H           -3.96737965563068       -0.70799586133832        0.00890441700753
H           -3.53597154193206        1.72435947991299       -0.00081563460126
H           -1.23444791878034        2.57461171397630       -0.01074878514972
H            1.20291581535070        2.13608108020300       -0.01447737782418
