48
 energy: -10.654700533373 gnorm: 0.000733840659 xtb: 6.5.0 (97a52f5)
O           -2.19862960846085       -0.15951686772570        0.28377729551012
C           -0.96994072418457       -0.05761199089588        0.10414519399039
C           -0.15467723348996       -1.22515800331355        0.02876955168349
C            1.17798837389826       -1.14579041180889       -0.24465489575776
C            1.77977924115467        0.09016576150211       -0.45968928591016
C            1.03997933588453        1.24365928295936       -0.37705432823860
C           -0.32004406348325        1.22008484033060       -0.07136176771009
C           -1.05062490471132        2.47112255922941        0.02247278028840
N           -0.87421741648356        3.52151395994100       -0.82911143489233
C           -1.66496374542755        4.57566490358832       -0.41116051771153
C           -1.81814593796713        5.89206771771053       -0.96440797457502
C           -1.15380650113010        6.27301726336679       -2.13468549092031
C           -1.31343121953653        7.53133683692674       -2.64932582154180
C           -2.14137144434673        8.44133203880193       -2.00725297668691
C           -2.80206910873502        8.08890375582255       -0.85802411222257
C           -2.66396879642826        6.80937186934741       -0.29936605784218
C           -3.35095555456415        6.40963432170439        0.93056036140716
C           -4.18409877382685        7.29170548049403        1.63519115689466
C           -4.81195563247391        6.91286150087048        2.79357980051493
C           -4.63245624945618        5.63445793759771        3.30025810694906
C           -3.82897018722370        4.74677580887307        2.63911026717945
C           -3.17969141790764        5.10261251421675        1.45154680438434
C           -2.32751867243874        4.18271224809890        0.74267081581441
N           -1.94768051865650        2.85629814875084        1.01018939950482
C           -2.27210033879522        2.11665687907944        2.20854016437091
C           -3.49599860792060        1.47290085962458        2.33664280881905
C           -3.81890343020822        0.81471669934153        3.50237163377832
C           -2.92317776076939        0.78968120338028        4.55272192485489
C           -1.70086405604595        1.42098045189612        4.43308700792173
C           -1.37653718929662        2.08060633416826        3.26835096736915
H           -0.62760603710157       -2.17908494410980        0.17680769060365
H            1.76897284855579       -2.04500887578907       -0.30445698183676
H            2.83173350669706        0.14069382124101       -0.68705806971503
H            1.51564360246995        2.19682698562592       -0.52920544825517
H           -0.26679767437537        3.53829802559857       -1.64657916657090
H           -0.51490972059964        5.56344058171530       -2.62947815451054
H           -0.79769329595980        7.81597491493548       -3.55181582885707
H           -2.26407197437179        9.43111413043159       -2.41563176874530
H           -3.43690530825656        8.81424453503675       -0.38343152764332
H           -4.33765550541795        8.28952704706921        1.26759529282672
H           -5.44605410286968        7.61057234331322        3.31579077906607
H           -5.12508578250954        5.34270708711248        4.21337613353707
H           -3.68760726370190        3.76063195508078        3.03718283905722
H           -4.17919962602309        1.48882924769440        1.50542175213051
H           -4.77033900515676        0.31679587539216        3.59359017308926
H           -3.17654935010721        0.27448188324969        5.46477338816925
H           -1.00099042611446        1.39939289109610        5.25227159399367
H           -0.43027274212772        2.58230859142576        3.16541592643758
