37
 energy: -8.206462287629 gnorm: 0.000501670042 xtb: 6.5.0 (97a52f5)
O           -1.63051843872365        0.24128801246489        1.62770535218288
C           -0.65715580346113        0.18648630003967        0.85199232085499
C            0.08070073691664       -1.02709695713416        0.72825127574705
C            1.14567906189576       -1.12996773392780       -0.11564826542131
C            1.53929021643363       -0.04051569307517       -0.88301818070592
C            0.85784954147368        1.14935236952616       -0.79688836551802
C           -0.23346145872388        1.30608213424615        0.05028645941128
C           -0.92333073644548        2.57648731379302        0.12373300543426
N           -0.72255767562578        3.61100354729726       -0.74894852590176
C           -1.54690333254931        4.64752386367996       -0.37024408115774
C           -1.75148343813928        5.95667440540469       -0.92626841051438
C           -1.05008545831551        6.38540030821595       -2.05652557351183
C           -1.25849999439762        7.63543478390419       -2.57391326634460
C           -2.17316145419007        8.48934574952274       -1.97461063855986
C           -2.87224378002419        8.09022575156207       -0.86439283056950
C           -2.68681338463721        6.81787226725497       -0.30483831282884
C           -3.42055902190107        6.36882693620496        0.88127791944034
C           -4.35626149239371        7.17797348601129        1.54174920091690
C           -5.02780800869722        6.73080404984693        2.65126407332522
C           -4.79549357503249        5.45669933269121        3.15000893540620
C           -3.88954126260112        4.63783052337624        2.53192929664063
C           -3.19635404819803        5.07463266410701        1.40259419996592
C           -2.24490581489890        4.21410281256460        0.75478961136516
O           -1.85333822506715        2.92885415870742        1.05364738119185
H           -0.23151228461303       -1.86673444572689        1.32259616570911
H            1.68604217817325       -2.05941689593962       -0.18966930346140
H            2.38467186350007       -0.13001938705518       -1.54511005899867
H            1.18364250278621        1.98621618767814       -1.38763564944332
H           -0.10634022854509        3.63762450952444       -1.55802790479113
H           -0.34157863421992        5.72033051359090       -2.51711827712421
H           -0.71345358479349        7.95734125137912       -3.44610711068808
H           -2.33384479586469        9.47235125807221       -2.38605796121429
H           -3.57447511367629        8.77147600642862       -0.42037186748522
H           -4.55605230886910        8.16900471987632        1.17804968170090
H           -5.74179631973169        7.37223368042082        3.14128421628403
H           -5.32767319006739        5.11391873502431        4.02215182511030
H           -3.69735323677557        3.64650348044192        2.90509366355469
