111
 energy: -21.295725711627 gnorm: 0.000933585629 xtb: 6.5.0 (97a52f5)
C            1.04615373799021       -0.13035645445786        0.66214653969655
C            2.55532709557860        0.07092592957141        0.42944974391378
C            2.84777507628940        1.58411524171276        0.42276580287393
C            3.34804849609654       -0.57061309111321        1.58379554677051
C            2.95767869294934       -0.59625256044145       -0.89512614319681
C            3.50550804700084        0.13540580440052       -1.96602461978193
C            3.86207197044433       -0.45956098431666       -3.15144132768650
C            3.67994341371527       -1.83227836462800       -3.29774282082164
C            3.12711096789965       -2.57784283260022       -2.24598181472527
C            2.77049855571601       -1.95658983598423       -1.04870910661646
C            3.02845156584131       -3.94594230350584       -2.69490239727857
C            2.55020182661579       -5.10225128192880       -2.07764476555869
C            2.56995032800946       -6.30533631229922       -2.75691965644960
C            2.03449784183206       -7.56776055651529       -2.06305055421789
C            2.85197279579204       -7.83142922563580       -0.78462046042642
C            0.55345258958152       -7.35709074811095       -1.69663469712039
C            2.13713031731130       -8.80993150430478       -2.96969852664173
C            3.08188443918873       -6.33201322395821       -4.06813464920450
C            3.55479242791631       -5.20345887951882       -4.69166449747947
C            3.52528728588911       -3.99181192747644       -4.00586959123414
N            3.93044504190159       -2.69458249537763       -4.38573750368316
C            4.43658983922446       -2.29998016081015       -5.67916651110320
C            5.57672293571146       -1.51355535216806       -5.78292323549788
C            5.97654627135802       -1.16125915189409       -7.04477333322630
C            5.22817370924569       -1.60818957191567       -8.10087322536642
S            5.73612692756835       -1.14835811348594       -9.78646608572167
O            5.61824216711963        0.36208381210132       -9.79703611917603
O            7.11329995355679       -1.76304843712907       -9.92547468046007
C            4.55116776452322       -1.91118512179485      -10.92673859802018
C            3.52960423155654       -2.66992661847270      -10.42649562271114
C            2.64739609829076       -3.23570435761405      -11.30404941085508
C            2.86745348541609       -2.97933669217215      -12.65212865781975
N            1.98283888293614       -3.54125119383396      -13.64932260106198
C            1.15717134676041       -2.82301087763962      -14.53886107150859
C            1.00144113430462       -1.45521580544515      -14.74494425308599
C            0.08607418273171       -1.02482501246858      -15.67419365829631
C           -0.70138649941708       -1.92124976744430      -16.42201180847693
C           -1.73492867397527       -1.43818973687984      -17.45171569391401
C           -1.38060879204446       -2.01172314183004      -18.83649743688103
C           -3.13501768004916       -1.92410001685908      -17.03203939292266
C           -1.76682029268245        0.09910271476441      -17.55717210583840
C           -0.54444738347966       -3.27784369753757      -16.21082685523048
C            0.38063948127936       -3.73359840278064      -15.27113348846125
C            0.73478387929070       -5.05915304079442      -14.82117404641680
C            0.28353956855787       -6.32778665662301      -15.18656253639694
C            0.80400101978155       -7.44919874663049      -14.56878091007423
C            0.29140115856387       -8.83800035932405      -14.98126276937828
C           -1.22049287665903       -8.92465849607547      -14.70088863111897
C            0.55315537027009       -9.05221678517407      -16.48392119069896
C            0.99548276312910       -9.96565107511883      -14.20145712904785
C            1.78645091106395       -7.27947860228284      -13.57433229393275
C            2.24056934845165       -6.03860639715200      -13.19992222991219
C            1.71140928985417       -4.91323590138904      -13.82529825730563
N            3.91604679816798       -2.21722816423162      -12.99129985019792
C            4.73321629117713       -1.69667074402127      -12.22460684254862
C            4.14181426741988       -2.36432591658110       -7.97867113784001
N            3.78532292407836       -2.67606820098316       -6.82677724003343
H            0.72733466096005        0.34789609291749        1.58759303505054
H            0.79317348045557       -1.18727865443774        0.72961632624636
H            0.47009798397643        0.30016885894497       -0.15610801190625
H            2.55977264217165        2.03689540812087        1.37097900010264
H            2.28914336739493        2.08857428183093       -0.36473758181410
H            3.90959506044068        1.77771499672204        0.27524076045623
H            3.09783037322906       -0.10312022887816        2.53545943676313
H            4.41966685807261       -0.45755533154579        1.42372291368371
H            3.13258039172972       -1.63447609828270        1.66957614292061
H            3.65018865039655        1.19558015524596       -1.86065825778514
H            4.26824239200892        0.11402498104642       -3.96473638140386
H            2.34759201863232       -2.54658366864035       -0.25717559663283
H            2.16782212900907       -5.04235392356786       -1.07583967336194
H            2.76578783144363       -7.00437171945306       -0.08163303837052
H            3.90718405051651       -7.96020787773500       -1.02271670307146
H            2.50702606522945       -8.73367767408526       -0.28087465398445
H            0.43002003784512       -6.52066663445341       -1.01053518176220
H            0.14064800008094       -8.24408320903246       -1.21737950700324
H           -0.03742585654634       -7.14910271740925       -2.58788688518709
H            3.17229360782753       -9.01348004317602       -3.24113630790080
H            1.55718009231505       -8.67857366288180       -3.88245752213675
H            1.75169390685538       -9.69233890775719       -2.45997209935448
H            3.10718452381121       -7.26301028289338       -4.60536839085850
H            3.94962238883220       -5.24227398707552       -5.69064119071329
H            6.11795443258558       -1.21074641618128       -4.90400674864315
H            6.84925259849404       -0.55248829831346       -7.21372123167887
H            3.44556142210939       -2.79664932579844       -9.35834159786884
H            1.81835914948989       -3.84161169387637      -10.98324717046603
H            1.58940856053005       -0.76041009826517      -14.17297739185096
H           -0.02990440527484        0.03302371005957      -15.82750996478313
H           -1.40055967950122       -3.10038218082840      -18.83168937598223
H           -0.38286303563418       -1.69630140861710      -19.13940551597904
H           -2.08681481735417       -1.66951791439873      -19.59214052810621
H           -3.18286682206443       -3.01132823313128      -16.99601598578786
H           -3.89367494567293       -1.58065406999792      -17.73439456309952
H           -3.39325129867699       -1.54475882361009      -16.04402056601680
H           -0.79946583972228        0.49129706311861      -17.86878424383372
H           -2.03571471187655        0.55251719191760      -16.60385386012524
H           -2.50404899632584        0.41989537492667      -18.29246362835187
H           -1.13261775300946       -3.99166648261845      -16.75665524933646
H           -0.46936349425204       -6.41780385440111      -15.94707732657785
H           -1.77235569550318       -8.18024061799203      -15.27268873127206
H           -1.42589335720155       -8.75518772404363      -13.64454985262703
H           -1.61093900932381       -9.90607635918492      -14.96770360060871
H            0.02927376470119       -8.31248231585015      -17.08714143803222
H            0.21654530229187      -10.03852945379516      -16.80122818277467
H            1.61697541730666       -8.97156893880364      -16.70417778159365
H            0.81934233158340       -9.87179378097095      -13.13054498238327
H            2.07009013949739       -9.95412471967732      -14.37991973941627
H            0.62123650347676      -10.94081342190383      -14.51133424156505
H            2.19887747527243       -8.14468116848767      -13.08720228564257
H            2.99221272146815       -5.92074898854493      -12.44013119381751
H            8.89708357688695       -0.60968875051736      -10.58820824459086
H            2.95760349245224       -3.25833905743861       -6.71144099974178
