70
 energy: -18.831367670446 gnorm: 0.000811162502 xtb: 6.5.0 (97a52f5)
C            4.89303940429153        1.83524179044238       -2.26266733157446
C            5.57362258661062        2.62528057843768       -0.97139797876342
C            5.47979176419788        3.21325448590163       -2.47082221684846
C            6.55643803992837        2.68894211500558       -3.38495723092824
C            6.17474977869804        1.34302134822945       -3.03355017567100
C            7.14559543265942        0.59881974572365       -2.30823882071320
C            6.57063608272779       -0.21467309103824       -1.22363862378091
C            5.22420780160904       -0.00378648914976       -0.84121264474916
C            4.51448823984652        1.46245602940258       -0.75003071096738
C            3.61978213348447        2.22727543885228        1.14715373809122
C            3.62399048926993        2.82328053277580        2.63319010049631
C            4.90853328013906        3.34572881958427        1.59511726021464
C            4.91994295489369        4.45166750887396        2.77719943086764
C            5.90617465889070        5.26540949424248        2.19631632330813
C            5.57450944343755        4.66606230341005       -2.33349829747279
C            6.62222869170657        5.42673754343679       -2.86941674638717
C            7.92857561268572        4.75632561319124       -2.91709808599518
C            7.86135299812769        3.30597435343806       -3.20691013257581
C            8.68671719489235        2.64536923206363       -2.23739424800701
C            8.34353084118519        1.30202579385260       -1.85610267021786
C            8.58051257209967        0.89277692975026       -0.50102799780580
C            7.74060925018127       -0.28884319452686       -0.26851957467135
C            7.41677569584931       -0.56003773630192        1.05483807678857
C            7.12013118942639        0.56285172875477        1.82149286363727
C            5.77587686647131        1.18377486430571        1.67133737240635
C            6.02979291444344        2.48249456789602        1.95687082237236
C            5.10914824194190        3.86666080668591       -0.07059886983489
C            3.74854636809293        3.95535616423349       -0.61292005289326
C            3.24079535637163        5.19320350595371       -1.10207163281011
C            4.27953356958156        6.13457029313142       -1.14175616438587
C            5.52157802826761        5.35020769122075       -0.78627278502282
C            7.28083211972855        5.41317534076976        2.41393466459032
C            8.00649966555797        4.18977823446881        2.14306776983850
C            7.40661054977123        2.85457353446000        2.23410677934853
C            8.10389120102510        1.69359340714708        1.73822749560769
C            8.84627583770656        1.92003717715322        0.50096577789078
C            9.10842532682825        3.33444826477055        0.10637449225463
C            9.10801043679167        3.66595951140617       -1.27211362344020
C            8.71853029396320        5.00715334253363       -1.72570728606622
C            8.43771877462367        6.16284705103770       -0.81800586112991
C            8.51115016653344        5.83921816289095        0.55738225662514
C            7.56157489237826        6.56701308015533        1.49104821972921
C            6.51704261376391        7.52582302720367        1.13830001782742
C            4.47087260385192        7.60915678951389       -0.83974758459807
C            3.15241649109105        7.75738246898146        0.12951807165460
C            2.10874773249275        6.76362779796053        0.29993213472057
C            1.93357052103903        5.56366198687198       -0.60078190059790
C            1.30122879409152        4.38448965923780        0.00522669979069
C            1.64582008433821        2.95832466019877       -0.37859264728877
C            3.19128394510042        2.64177039455977       -0.36382907587091
C            4.29339637632198        0.81521548288338        0.90682631689589
C            2.93786540307721       -0.22332942048019        0.84217105538277
C            1.26388176691611        1.89953388734583        0.50192745300615
C            1.24091836265073        2.18035402882473        1.91662051412274
C            2.48459644284383        1.24539507257023        1.32490073682116
C            4.33733358084954       -0.67068652584521        0.23190880628671
C            4.10194590753539       -0.51499409707286        1.68898903367525
C            1.42979514670782        3.58358644825806        2.37641999144415
C            2.71318565099166        3.73678891584875        3.13044222752109
C            3.58931202176656        4.93910919369127        3.08651897912075
C            3.22524374069426        6.10177461741859        2.30745285408373
C            1.96789926007870        6.02055405357799        1.59351380928589
C            1.28308571575383        4.71086740667269        1.43459451289935
C            4.35991002445862        6.62650637397644        1.48302053453661
C            5.42358321740701        5.82276569219071        0.91077846762260
C            6.40624997690413        6.40801970838139       -1.79453371730539
C            7.31561253240914        7.16567744429767       -1.12436477385107
C            6.16499516977430        7.97088344626069       -0.31159622277421
C            4.73929032298944        7.90656780092086        0.86232411589381
C            8.80096984718351        4.46878781117876        0.97400590833926
