70
 energy: -8.025626909074 gnorm: 0.002388262142 xtb: 6.5.0 (97a52f5)
C            1.60542584728967        0.31598916538132        0.67984683865875
C            1.97342965020365        0.69768129468640        2.07090012534926
C            0.53332238692054        0.56964442722987        1.70453753785265
C           -0.00175961117663        1.60865473704906        0.84330229360281
C            0.95190203127114        1.39962356926985       -0.11121674677922
C            1.20549468306862        2.02553131455362       -1.29948602020472
C            2.22551156223748        1.76221684862542       -2.18276913593698
C            2.47389292519076        2.36821958853382       -3.29081076303752
C            1.79890246164538        3.39424823138668       -3.82701922182142
C           -3.27082023722275        6.26822400532511       -1.64550548559264
C           -1.92437523217173        6.49528568309622       -0.82519270889748
C           -2.42147600148536        7.65241690531413       -1.70878635245174
C           -2.97620022201904        8.76013713193204       -1.00896483028959
C           -4.13720021296557        9.28591287692739       -1.20263624566411
C           -3.73048522331177        9.10353873915085        2.48240237618420
C           -4.27986173310241       10.22868586265948        2.58910916997460
C           -3.77683904154800       11.35909593820543        3.15699906967563
C           -2.50984855193405       11.68984180331373        3.53833374957935
C           -1.45461127534133       11.34239647064709        2.77640450665365
C           -1.43156225292809       10.83629039672682        1.54696702673333
C           -0.35843777566896       10.51959311591690        0.85821714135040
C           -4.18862945076494        4.20620083935751        3.05654432182679
C           -3.37546746070349        3.54691196131588        3.79038349431757
C           -3.01046661302601        2.66534797552600        4.70240857812368
C           -3.78791243143875        1.83610888307300        5.44690340230976
C           -5.04366369911416        1.74044114214312        5.40624454470820
C            2.51221743138289        1.94420350601287        2.33286436828229
C           -3.42011068587271       -2.75399076856763       -0.19006056330591
C           -3.11279401813820       -3.82964365418393        0.44252088717288
N           -3.80009538863236       -4.92095240912644        0.58590187025733
C           -3.42966155255247       -5.99005233641497        1.23760991208865
C           -1.29804540458434       -4.41691476062797       -3.09941705856175
C           -0.36213676818904       -5.20620146355901       -2.68792241732707
C            0.30023705045557       -5.14085394542711       -1.52619863542448
C            0.13750235616388       -4.23172542399798       -0.55344110796819
C            0.78803464734036       -4.20209750061824        0.61433838315195
C            0.63772943726015       -3.26754121301964        1.62469888094683
C            1.38093691380979       -3.35902706316786        2.76760742852287
C            1.41348184782295       -2.58398306342045        3.87212323199938
C            0.51101480501524       -1.75256211526376        4.42476278599633
C           -0.81824077376358       -1.72386175948510        4.32906237913216
C           -1.64096109441823       -2.65564105345035        3.85256167285475
C            1.29286744999873       -1.69554539519375       -2.96761510110783
H            5.46292452694155       -1.24393383931292       -0.92175535233813
H            3.02645031142568        4.72794227934752       -0.02363735378551
H           -2.68467321068142        0.82490627721218       -2.90848750453160
H            0.27889234262050        0.34266283104422       -6.93760747327222
H            5.49915890172605        6.03189338570925       -3.86846531549574
H            2.10123746901823        8.11451287141531       -2.35435531104212
H           -4.17009323972636        6.31987941992836       -1.01489129600985
H           -7.40936331009386       12.52288424119803       -0.76376832144805
H           -6.97727366492220       12.80415992244850       -0.16982710212444
H           -6.76848066550189       14.81982050761042        3.52543596221581
H           -1.62842588285642       12.94111388062374        7.83810197137842
H            0.58243049036949        9.57792583886846        6.50326813524130
H           -0.02343468939793        6.66370605286796        3.38352111369537
H           -2.84147159409359        7.09681992513969        6.49160907078213
H           -4.14293489783829        4.18773475748297        9.28583931025767
H           -3.52410749758380       -0.03437203728776        9.56184819577351
H           -4.36757200673484        0.69464598923331        1.77832817059002
H           -5.07400486286038        0.75470711400245        1.48195936281469
H           -5.97849397967993       -4.62012920297390       -3.38076645431194
H           -3.71328285511219       -8.22083339830921       -2.73257416451637
H            0.29777992897562       -9.48581987055411       -0.43353665745019
H            2.40753879324005       -7.78499575915856        2.88572991651823
H            5.20778700343460       -5.02255913911962        0.84142985182038
H            5.19166361228063        1.31766931032252        7.98887886562793
H            1.05098867303774        2.07726524255401        6.64317865591242
H           -6.12165034205630       -2.61045984757620        3.74779901754557
H           -0.04011990645865       -2.44393548044299        1.47845124408830
