56
 energy: -12.258594491741 gnorm: 0.000467693421 xtb: 6.5.0 (97a52f5)
C            1.53962387771321       -0.65121829436081        0.65654550911329
C            1.16993438395120        0.67511194489738        0.71023347888833
C           -0.17510280368404        1.04276099042145        0.63198846475681
C           -0.58772588077130        2.46945668445227        0.67840521366928
C           -0.32160215929231        3.32643451604753       -0.41653605478175
C            0.33850690837259        2.86457191418076       -1.58470159952947
C            0.57468079834737        3.69502360284270       -2.63417937070869
C            0.16647676376296        5.03923565771393       -2.58632078515921
C           -0.47292551335814        5.52511078491411       -1.49128907717013
C           -0.74184699067308        4.68861159499769       -0.37368506928062
C           -1.41350273460416        5.16686414481919        0.74904012861195
C           -1.68947958150159        4.34073807727336        1.83603303692526
C           -2.37878196864779        4.82433418152704        2.98152885956583
C           -2.63849390035261        4.00664896952771        4.03417527568710
C           -2.22702935410260        2.66274314264911        4.01010558479121
C           -1.56660309864073        2.16288588250726        2.93277659032890
C           -1.27573763570364        2.97626483024170        1.80700410855226
C           -1.12979831293913        0.03904398678899        0.50012563774822
C           -0.77120874185002       -1.30425188900273        0.43713149312136
C           -1.81030360834944       -2.35072902137350        0.26162492935060
C           -2.57296076402865       -2.40014307242815       -0.93093671192411
C           -2.35878021763579       -1.48693907664526       -1.99648997863403
C           -3.09605429376803       -1.54829963505580       -3.13633267415927
C           -4.09278870557505       -2.52729044401411       -3.28919668082498
C           -4.32965952325896       -3.42703527614151       -2.30016390531971
C           -3.57994161602456       -3.39706175175725       -1.09261497037712
C           -3.80669945999547       -4.31794292325374       -0.07284514749137
C           -3.07051051745861       -4.28745195525102        1.10903092608774
C           -3.30922007851455       -5.21971934518385        2.15538564504596
C           -2.59458097832308       -5.16938955324541        3.30883530433732
C           -1.60352932949534       -4.18917866714281        3.48920762800942
C           -1.34444453369783       -3.28165950680207        2.51132686193524
C           -2.05965881684711       -3.29653142798736        1.28561312934169
C            0.58368560380303       -1.63425487503322        0.51929425279586
H            2.58136382947716       -0.92075255256437        0.71793959981761
H            1.91491198119016        1.44496346492714        0.81574253910027
H            0.64940120725777        1.83586694686980       -1.63157147956451
H            1.07695508873456        3.32364973054661       -3.51245440425775
H            0.36180573583751        5.68428765378482       -3.42740125991584
H           -0.78872023495319        6.55367063976156       -1.45769957527911
H           -1.72981408860581        6.19392535643410        0.77508169367910
H           -2.69333024075264        5.85362652088415        3.00180167276651
H           -3.16274765483433        4.38655366283266        4.89585510844870
H           -2.43951113574979        2.02710736438410        4.85414599882239
H           -1.25301550854368        1.13391327014962        2.92351963001469
H           -2.16863887536510        0.30890735809008        0.43776209375317
H           -1.59447325175455       -0.73743732582266       -1.89239072749494
H           -2.91724995755404       -0.84350463601146       -3.93192029806039
H           -4.66894916385650       -2.56164396817435       -4.19943360070656
H           -5.09185229771676       -4.17775191812375       -2.41934089196447
H           -4.56833082570597       -5.06598135390112       -0.19931087516613
H           -4.07211929020163       -5.96712105401627        2.02050493591144
H           -2.78749460589725       -5.88140066580729        4.09462967357893
H           -1.04744151597960       -4.16030712391162        4.41199306590577
H           -0.58874917021014       -2.53126691966118        2.66178519530750
H            0.87183275832990       -2.66996864180363        0.46366187200024
