43
 energy: -9.594040242378 gnorm: 0.000818364144 xtb: 6.5.0 (97a52f5)
C           -2.92894408575528       -0.58432177274504       -1.72340595942121
C           -2.81033075803959        0.61734021674240       -0.99660974750253
C           -1.60288250691222        1.10517088240840       -0.54685461054286
C           -1.51236447593815        2.36678605869112        0.20389690864637
C           -0.28999840928490        3.02389804732511        0.35760083067389
C           -0.19067469819855        4.21340874493812        1.03417825726345
C           -1.31699879444771        4.80046266751848        1.59936339829536
N           -1.21429470169967        6.03855565319191        2.31962377667225
C           -2.03236797714658        7.17535506538095        2.14581960492868
C           -3.08788954888012        7.41647625280074        1.26679807522880
C           -3.71228869191753        8.63901026111909        1.30253003109829
C           -3.30407287115014        9.63074090948238        2.19890612138704
C           -2.26188430349383        9.41263433580518        3.06731431421440
C           -1.61511532363490        8.17603705089967        3.04022963525816
C           -0.50630215086733        7.64223116826976        3.79520949800150
C            0.27893064790607        8.17719861960037        4.81771881679593
C            1.26803614731350        7.39670033742222        5.36583741388738
C            1.48509292569652        6.09092255404424        4.91714554317685
C            0.71985331823565        5.55117983546018        3.91278173464670
C           -0.28099559600438        6.33298296879862        3.33661508640466
C           -2.54088362686947        4.15349678236018        1.46428638143502
C           -2.63706356656809        2.96342185941841        0.78410650752108
C           -0.42035181260170        0.33123743427297       -0.86422874087660
N            0.83015672640700        0.59693385923903       -0.55095606169603
S            1.77981462291590       -0.60474735191514       -1.14909041919600
N            0.59750896660635       -1.51559283473329       -1.83502308316959
C           -0.55390116163766       -0.90908449751299       -1.61712182124310
C           -1.84240282163034       -1.33940047112478       -2.03281595029748
H           -3.90617812887581       -0.90858109833502       -2.04168841150506
H           -3.70512301065739        1.18268825944293       -0.80976517190191
H            0.59168774589112        2.57912595213879       -0.06161360332974
H            0.75795359494068        4.71216586920769        1.12784963222092
H           -3.38946734972804        6.65406961788064        0.57128809633658
H           -4.52877586992815        8.83916288992939        0.62840265296292
H           -3.81316370549293       10.58039795644353        2.20610073314317
H           -1.93907392599490       10.17196854138389        3.75744470333779
H            0.10153670205164        9.18080020987134        5.16145333204736
H            1.88354867423330        7.79417212392366        6.15583559113179
H            2.26305616729879        5.49840083981304        5.36993963579114
H            0.87320033638846        4.54295140755392        3.57237926949621
H           -3.41115235259438        4.59259854460750        1.91971727718942
H           -3.59264811989302        2.47529914958372        0.71892660521614
H           -1.93409623004424       -2.25525490061037       -2.58841588372178
