68
 energy: -14.980477853617 gnorm: 0.000655528513 xtb: 6.5.0 (97a52f5)
C            0.65428813453519        0.39180594104871        2.85297404342716
C            0.43735374053857        1.68541807442890        2.42978372954367
C           -0.68683573198565        2.00334369440648        1.67084886709153
C           -0.93550888506557        3.38959467403508        1.21338513048160
C            0.08437066041660        4.13483623389406        0.59903199488209
C           -0.13410967259375        5.41982042868565        0.16563098983850
C           -1.38419780311652        5.99492272318915        0.34255736686507
S           -1.92055199071422        7.60544591742106       -0.10958869054641
C           -3.53559532436749        7.33431108795098        0.53124227991772
C           -4.61234955518993        8.20823796543567        0.55356553000024
C           -5.80166539177823        7.79758093059220        1.11083008961372
C           -5.92746060233709        6.51999612677739        1.64715457503198
C           -4.86679625966564        5.64489742239176        1.62950872188254
C           -3.65315853404057        6.04934429367829        1.06565900413408
C           -2.41492466617426        5.27635311378367        0.95303154346737
C           -2.18470520722176        3.96974126029546        1.38367624867069
C           -1.57939819727692        0.98659998606582        1.35382562391176
C           -1.37868754760530       -0.32081656639749        1.77700999516275
C           -2.35499829291120       -1.36191995129979        1.39914994513811
C           -2.51827854831467       -2.49098549413186        2.17554688011016
C           -3.43634246966158       -3.44687411511864        1.79060863397173
C           -3.63731484718782       -4.66106789153872        2.60805616355585
C           -4.01337325663562       -5.85600747531723        2.00139142074748
C           -4.20551432056136       -6.99632109519177        2.75021654224650
C           -4.03482823564904       -6.96447304155575        4.11743936897399
C           -3.67127373951008       -5.78285898793669        4.76042701697540
C           -3.51673078261515       -5.73192370614629        6.23245055715376
C           -2.82956976122874       -6.74754397206444        6.91774029433418
C           -2.68371898381270       -6.71406182854227        8.28327987444735
C           -3.22680855864210       -5.65853267920086        9.00120849344183
S           -3.18662919255560       -5.37805308518773       10.73499603375644
C           -4.10137851265190       -3.88265392538011       10.59547485550873
C           -4.50113615222710       -3.01886212047641       11.60416669206828
C           -5.21908562909446       -1.89072437000512       11.27946480863940
C           -5.54266985224190       -1.61556522675388        9.95460446595706
C           -5.15120150801514       -2.46473915893211        8.94637659472434
C           -4.42094372405284       -3.61407503021122        9.26272986924766
C           -3.91507041572896       -4.63584662589482        8.34447606481047
C           -4.05472358118188       -4.67765217469705        6.95733412681018
C           -3.47554566813723       -4.64228974957272        3.98987523144779
N           -4.15098458552106       -3.28945810380681        0.67686597304211
C           -3.91906373060108       -2.16875342599940        0.02919866635049
N           -3.08682390658839       -1.18680660523847        0.29880004380370
C           -0.24113150303406       -0.60533552110330        2.53168501140397
H            1.53006308207767        0.15856842690703        3.43624968647998
H            1.13223795187792        2.46553707974109        2.68866558690127
H            1.04857230305691        3.67712330942133        0.46044451717633
H            0.64747547619698        5.98808765380955       -0.30814690881799
H           -4.50288298450728        9.19425308480824        0.13638182122861
H           -6.64300978188557        8.47077298132165        1.13210677826054
H           -6.86535652357606        6.21422382597080        2.08105860381434
H           -4.96055150282845        4.65710771076961        2.04456822674554
H           -2.97231288898310        3.41456990036905        1.85813652383684
H           -2.44497074962368        1.21214758148433        0.75884634294107
H           -1.93925331489213       -2.62549478585562        3.06933470436449
H           -4.14949877351727       -5.87479494492999        0.93425831922866
H           -4.49371584589210       -7.91485627403064        2.26584699902979
H           -4.19966772431946       -7.85135625503308        4.70447634022474
H           -2.40314290066230       -7.55765582685727        6.35202297670446
H           -2.15466413396257       -7.49212545548713        8.80569319685315
H           -4.24530585431139       -3.24216616749020       12.62542343810567
H           -5.53322721293831       -1.21447593663214       12.05752626083631
H           -6.10611151539652       -0.72823411701851        9.71690395277996
H           -5.40021338362829       -2.25521811010250        7.92125084954039
H           -4.59200628766333       -3.89820553014043        6.45014382873622
H           -3.20612681765719       -3.72445415239666        4.47901135799441
H           -4.50744673934309       -2.03246360049655       -0.86813774429992
H           -0.05123128571456       -1.61665834459512        2.84531366984764
