23
 energy: -4.169056197447 gnorm: 0.000412934772 xtb: 6.5.0 (97a52f5)
C           -0.68778988105583        0.78064969160066        0.77267738580921
C            0.67462366179942        0.95369774374115        0.76433783527033
C            1.47118565192778        0.07320983544575        0.04550952413107
N            2.87568262406197        0.20326381705432        0.00280182502138
C            3.61910595822721        1.39762462223338        0.48110729062289
C            5.05369865682241        1.28396874428824       -0.06625726097287
C            5.20766807681613       -0.17511226637559       -0.54069139233374
C            3.77636663749823       -0.68896969590892       -0.76922756898168
C            0.80522040195903       -0.94438767266198       -0.62354893469064
C           -0.56389852551157       -1.02086853177605       -0.54642500833864
N           -1.33237951188147       -0.18405916066971        0.13411629268400
H           -1.29780959715550        1.47098236078770        1.33604515788460
H            1.12807329135844        1.75829432284727        1.31559853019181
H            3.60190379827372        1.40101688908760        1.57512375673565
H            3.11465399767268        2.30570368738160        0.13688350837007
H            5.80284198442166        1.55435109615632        0.68845478159429
H            5.19692749850410        1.97341298661265       -0.90693465104263
H            5.70897970822195       -0.77455912378727        0.22843603352268
H            5.82051845007210       -0.25303995877875       -1.44748675695711
H            3.64596037764474       -1.72296128023293       -0.43505668733229
H            3.49401984363397       -0.63963673497862       -1.82502428663795
H            1.36235875054428       -1.66253222850882       -1.19851163074775
H           -1.07292185385427       -1.81508914355805       -1.07196774380310
