126
 energy: -24.224461443829 gnorm: 0.000753347752 xtb: 6.5.0 (97a52f5)
C            0.17801940054211       -0.06212575953138        0.90862126194080
C            1.66676661397125       -0.12475753675253        0.51965958228327
C            2.36459142402127       -1.15052310405410        1.43447085202416
C            1.80295367984911       -0.60464603274301       -0.93750281865446
C            2.28750221420651        1.27462505674778        0.65452394165558
C            1.77115977319727        2.33208668445695       -0.11716393798716
C            2.28136801185757        3.60511120900546       -0.05267377783853
C            3.34535122757270        3.85645426570537        0.80862606674734
C            3.87754027209191        2.81708132431300        1.58675648899147
C            3.34501016063448        1.52946426942154        1.50797982655728
C            4.96475320125798        3.37292888807750        2.35765456654596
C            5.83020760270323        2.81567153781979        3.29967442394939
C            6.78941623189368        3.60407828318522        3.90641622092204
C            7.73008156143609        2.97391189023524        4.94565239731655
C            6.89521154476820        2.38706316612888        6.09955294961535
C            8.54845201673361        1.85425430729440        4.27637807523491
C            8.71044432230106        4.00678466013429        5.53506906630218
C            6.87154704492885        4.96399787843744        3.55054971368778
C            6.03022407970104        5.52932811614728        2.62389000945825
C            5.06604216380333        4.72982962197182        2.01662953566188
N            4.07285407264011        5.03675103102136        1.06419301533802
C            3.85299132069164        6.32213492887614        0.45736414320422
C            2.61698301568657        6.95125914219421        0.55797592668620
C            2.42038289690136        8.19333415856638       -0.00649570188735
C            3.44764334493113        8.81488490541535       -0.67990174442184
S            3.17673082049368       10.43729888640109       -1.40385310293974
O            3.04186123125758       10.27228291791993       -2.90593891182887
O            2.09221435396143       11.16629334014088       -0.63370832130575
C            4.76365866587536       11.17462369891840       -1.00579632195649
C            5.65261112429917       11.46275671871757       -2.01569687705989
C            6.88824905633652       12.00036152232493       -1.70929917598491
C            7.22070463020384       12.24404601541855       -0.39660672360327
S            8.82868184067877       12.93190208193460        0.00393976394293
O            9.32235763778823       12.31687622558068        1.30004741346112
O            9.72494121608587       12.89833297882227       -1.21985594592016
C            8.29010236565526       14.61870833928323        0.29492431515203
C            8.18240650387654       15.08953286383356        1.58369316543770
C            7.77202196516553       16.38504357306930        1.81180395741485
C            7.46563609439916       17.22393666813937        0.74572285249317
N            7.06573880556426       18.58464212725870        0.97945879503253
C            5.94414720855937       19.23559038465980        0.42426432313152
C            4.94446030140572       18.77621067834897       -0.42909429111844
C            3.94856679698648       19.64152226617277       -0.81092430847500
C            3.90332457861242       20.97640207171052       -0.36540342789510
C            2.79016427064961       21.94450584056273       -0.79602648681063
C            2.02207880370815       22.42257360361041        0.45028358994197
C            3.41734094407259       23.15441991917356       -1.51386422076948
C            1.78786104703929       21.27704897374554       -1.75785766793717
C            4.89215484798101       21.42403799781879        0.48957263990919
C            5.91148542666309       20.55909403385951        0.88885044113787
C            7.04988185460673       20.73745885349009        1.75816822257094
C            7.51639543260101       21.83602103036203        2.48103869426200
C            8.66895868894666       21.72646622470581        3.23538774620596
C            9.16679520959681       22.94596190538017        4.02702937398628
C            9.44423789750101       24.10669273402165        3.05343472866775
C            8.08800941014852       23.36738066905366        5.04218406964316
C           10.46556274370585       22.63961665336701        4.79826224953458
C            9.35161611882642       20.49529183908978        3.25146690572209
C            8.90646080238187       19.40345083900334        2.54757446186949
C            7.73972768004977       19.51661141175009        1.79622571372303
C            7.57335825907224       16.73095597354398       -0.55030983058312
C            7.98431563852983       15.43414732534721       -0.77129261147475
C            6.32751430513841       11.96606363325321        0.61290430621368
C            5.09134562765980       11.42915177601328        0.30655973697438
C            4.67396507672851        8.19770053923852       -0.79708024262934
C            4.88022343682065        6.96022662542510       -0.22858650990025
H           -0.28364309414497       -1.04650081819522        0.84123415214785
H           -0.37506327091290        0.60945886786381        0.25398530062087
H            0.06247050304657        0.29605329461492        1.93085770010793
H            1.91238218604520       -2.13560550107588        1.32509529570242
H            2.27948408495448       -0.86378587495820        2.48187990597204
H            3.42075195121620       -1.24402406503443        1.18470036266783
H            1.38985783470862       -1.60535772967574       -1.05816632973162
H            2.85004213900156       -0.63348921674746       -1.23645515532912
H            1.27686641856822        0.05668878592812       -1.62394534186512
H            0.94927412823075        2.13459234520652       -0.78275342783365
H            1.88154556368367        4.40230157749184       -0.65302874553562
H            3.77424042954408        0.75454255145619        2.11384302249127
H            5.73804443899816        1.77440899094359        3.54567558063044
H            6.22499878535941        1.60494529717444        5.74674368309310
H            6.28925954233213        3.16152128431962        6.56818623690813
H            7.53837194329731        1.95322043517604        6.86427354038638
H            7.90143553417254        1.06959042674087        3.88758228008421
H            9.23687872358303        1.39718473280640        4.98620036826043
H            9.13247837111781        2.24894527479536        3.44589828132745
H            8.17607615277143        4.81549853424565        6.03209264994642
H            9.34486385556761        4.43354792762126        4.75927501622611
H            9.36275737656796        3.54157176721762        6.27329418378962
H            7.61315831190435        5.58733747115842        4.01666929571007
H            6.09775107999219        6.57074043509316        2.36533003767665
H            1.82469909457522        6.46072584216954        1.09578287613000
H            1.46893294829047        8.69131556552299        0.07765500124522
H            5.37799151551710       11.25589103797395       -3.03659048672912
H            7.60018158797196       12.22391404621909       -2.48620773585209
H            8.42537980749884       14.43641557104128        2.40494290707167
H            7.67779171374090       16.76046358348502        2.81565833364803
H            4.96124504206768       17.75681734664386       -0.76994782033546
H            3.18120816072879       19.28003932617922       -1.47146875852626
H            2.67720673542914       22.95217732088459        1.14007886868198
H            1.58854486532382       21.57682797087800        0.98257958058276
H            1.21349662642995       23.09829144563181        0.17417273297639
H            4.09325895149118       23.69884653997554       -0.85648694386915
H            2.64872195276116       23.84940920166608       -1.84980701581557
H            3.98533006747426       22.83213070360317       -2.38570229837867
H            1.29734077155569       20.42668563016334       -1.28585496040504
H            2.28373023473735       20.93361243423551       -2.66491004052897
H            1.01102504025237       21.98091486511365       -2.05446297748784
H            4.88774471011041       22.43382691897908        0.85509718663129
H            6.97104356612282       22.76026994896501        2.44097683560200
H            8.54151428077261       24.40211440840107        2.52125234999628
H           10.18994272901624       23.81806854493096        2.31367248449033
H            9.81757986275245       24.98070142573747        3.58577558156847
H            7.16284386295342       23.64984798080170        4.54245271316849
H            8.42081924199385       24.21977359837146        5.63321134210257
H            7.86316832594244       22.54967659472160        5.72584963445861
H           11.26747976291756       22.35424966828354        4.11850137499843
H           10.31498875369050       21.83495149820497        5.51684239641527
H           10.80090016321789       23.51568736717640        5.35222483592404
H           10.25275055237048       20.39945283992239        3.82989341985047
H            9.44407968080059       18.47269793505866        2.56030589497908
H            7.34906409519840       17.38178050019701       -1.37708925073976
H            8.07763742967822       15.05055068627505       -1.77346942651981
H            6.60440630620626       12.16181565199830        1.63541954352419
H            4.38285213420111       11.19785397201380        1.08455995322476
H            5.46888942000208        8.69196655489513       -1.32932522403038
H            5.83462109851157        6.47044402670210       -0.31240337293335
