27
 energy: -6.137978322213 gnorm: 0.000917099776 xtb: 6.5.0 (97a52f5)
C           -2.92805167047564        1.16816197193694       -0.15491055195652
C           -1.64226483162302        1.54307146718996       -0.27625421825498
C           -0.73433033802654        0.43550889435974       -0.11887386949043
C           -1.35958990297310       -0.78137308000374        0.12257695515101
N           -0.39506292242620       -1.76059366498113        0.25380659030280
C            0.85251304021611       -1.16865348239226        0.09943661461196
C            2.17817530722316       -1.73079937661977        0.15234723525969
N            2.60791152984205       -3.03334034333869        0.37524845429754
C            3.98808904318779       -3.04815130704245        0.33661349330787
S            5.35691193917137       -4.12602541269428        0.50710012020220
C            6.49363261804135       -2.82106860376558        0.23210571257766
C            5.87840677211085       -1.64378200539164        0.02246648316363
C            4.44361487441745       -1.76084448229278        0.08041259879190
C            3.29646842496631       -0.91390518852604       -0.03637193018290
C            3.15534947170435        0.51198716950518       -0.28821602811274
N            4.10079734142706        1.39390211794632       -0.48250959714230
S            3.37592732104504        2.85982761987993       -0.71619436709988
N            1.80573798421910        2.36827858499674       -0.56770019773688
C            1.81456353008636        1.08109960556397       -0.33866976725347
C            0.67647841499433        0.19795548038353       -0.13526122267297
S           -3.09413466461035       -0.54847622152885        0.15556115357986
H           -3.77040886833988        1.82883888949221       -0.23532261110512
H           -1.31076512466150        2.55007870473662       -0.46941610288701
H           -0.56946666361359       -2.74633509095357        0.43755988390013
H            2.00954861284250       -3.83561842450174        0.56020937885222
H            7.55736588837697       -2.96596302044764        0.23473019205746
H            6.38328287287738       -0.71052080151117       -0.16578440216132
