38
 energy: -8.739954211515 gnorm: 0.000817069312 xtb: 6.5.0 (97a52f5)
C            0.96096870445260        0.63319015583120        0.36486626259965
C            2.21602714258848       -0.08555063593581        0.27889798943784
C            3.03451478944009       -0.02534893024140       -0.98604445700095
C            2.32380036663110        0.01980517717109       -2.17816885611237
C            0.93624692155962        0.02311442425614       -2.12241842829212
C            0.32182458457948       -0.04140023404745       -0.74680770148343
C            0.19177741816649        0.09172763302487       -3.32110608391111
C           -1.21816127880619        0.11524719038647       -3.40895591603878
C           -1.86422764419692        0.17537580719668       -4.62958838409033
C           -1.16130170649158        0.21733915182684       -5.82647668733081
C            0.23141625570289        0.20153247147189       -5.78565044967984
C            1.25352491663405        0.23675873273800       -6.78831603421848
C            2.45172693223715        0.20181126022309       -6.15055751268692
N            2.26090095808559        0.14192714911014       -4.76764447126888
C            0.89523717632313        0.14172506152433       -4.54856526970319
B            3.05405190705057        0.07862512756837       -3.52367961103752
N            4.53050250964212        0.09921722624246       -3.53913719346675
C            5.58643990632303        0.15508275556264       -4.45253277060636
C            6.77503435496915        0.15281925185219       -3.79615763392444
C            6.49171495905454        0.09117687661452       -2.39360952175102
C            7.28655581214883        0.05444014293156       -1.24971059991777
C            6.66677264504071       -0.00260565465828       -0.00834824715493
C            5.29027438775547       -0.02715978707623        0.11616734617617
C            4.44664767624415       -0.00042168807854       -1.01681868124111
C            5.09179209054599        0.05966287123560       -2.27553350112212
H            1.04218120508595       -0.54593890209295        0.16419518171587
H            2.73270738132159       -0.36977446685269        1.19801842509940
H           -0.74101689876594       -0.28385710087748       -0.68274721400404
H           -1.79863409841156        0.08997747550776       -2.50442520543879
H           -2.94143708469860        0.19104918356619       -4.65480944478795
H           -1.66965244281330        0.26357461293392       -6.77316541413735
H            1.09085079727275        0.28475209881581       -7.85164622149290
H            3.41911548531144        0.21410530443188       -6.62328017424161
H            5.45529640283599        0.19869316429341       -5.52039668980984
H            7.75583500595862        0.19001811077586       -4.23899586814104
H            8.35811055629291        0.07389469592447       -1.34016939189777
H            7.27635177811487       -0.02668119881692        0.87997079854893
H            4.84884012681582       -0.06354451433920        1.09575763241270
