92
 energy: -16.884707993629 gnorm: 0.000525110013 xtb: 6.5.0 (97a52f5)
C            0.13225110389045        7.50626281989557        3.54725133714291
C            0.29003499173694        8.81404521346673        3.94354880719523
C            1.13574243236787        9.66629608237508        3.23894407412191
C            1.80405185924667        9.18860681847659        2.07876322501319
C            1.65943544378017        7.82685856071698        1.69639953005283
C            0.81121322905004        7.01501329936406        2.45366053398245
O            2.37595114304188        7.39268773737020        0.58193959128698
C            2.15749015029424        6.03649826170653        0.19642531793645
C            0.83157009269841        5.82234495374887       -0.53260269314545
C            0.84068971768472        6.25245342237137       -2.00254710745857
C            1.11089459906413        7.74564283927738       -2.24794942416614
C            2.59525841748488        8.11169345567775       -2.26374532358369
C            2.84879383263890        9.57294753536448       -2.62210537126154
C            4.31486741175801        9.96684636071464       -2.46702648815718
C            4.56861217907277       11.43161856747337       -2.79738943975186
O            5.83799602416946       11.89888725040439       -2.31631884552027
C            5.77436882518011       13.13041280984463       -1.63123606418367
C            6.64972349220222       14.14368123585597       -2.02311097335965
C            6.57969191322162       15.39779927054551       -1.46500685984826
C            5.62347092589764       15.68517725461819       -0.51858424581506
C            4.72599309254165       14.71139244839422       -0.07362450246980
C            4.84351274124129       13.38324430608184       -0.58067053979110
C            4.06647795254130       12.27915724470739        0.02262386827849
C            2.64274557635423       12.29289817618010        0.01760580974083
C            1.92104068332633       13.32083143442741       -0.63070591856952
C            0.55936953222473       13.33630163227294       -0.64398464102694
C           -0.16063132683171       12.31733875712191       -0.01568664499725
C            0.49659884554649       11.29984311849749        0.60608620739705
C            1.90876957241374       11.24650781354921        0.64228944845028
C            2.57949565753648       10.16033828734312        1.27408693146263
C            3.99940726735992       10.11261586228395        1.22432278599980
C            4.70817187396619        9.04290226621496        1.81484583499545
C            6.06932680975225        9.00816100908584        1.81345253274759
C            6.79647326989108       10.04912408645803        1.23012977311320
C            6.14866217591121       11.10051541074377        0.65546373745031
C            4.73694432908854       11.17069893130450        0.62007529714051
O            3.71978144300421       14.99483760790107        0.85863835287999
C            3.30031995928279       16.36348045650111        0.88096102291760
C            1.83354223810211       16.51705355182801        1.26071049128394
C            1.53471453496864       16.02503361797684        2.67061838842234
C            0.04142121880061       16.08967496465990        3.01252741398153
C           -0.31313071448786       15.57496934747306        4.42152752777326
C           -0.61630567860454       14.07309892093893        4.48912191210938
C            0.53317156835325       13.19869239275829        4.00578231567128
C            0.31035966012568       11.70521128614456        4.19269115423173
O            1.40746589336904       10.98355175295684        3.62912472326913
H           -0.51933514840742        6.85523373733823        4.10738847464373
H           -0.21538592051633        9.17987569605548        4.81893320588798
H            0.67173894071205        5.98570839838032        2.18024340235847
H            2.25372953191854        5.40993941712966        1.09081074514394
H            2.99217909143887        5.74352914166353       -0.45095695682625
H            0.04342071395649        6.36987494560885       -0.00446482632432
H            0.54562041293887        4.76371471046079       -0.46697238736367
H           -0.12464579986638        5.98110086213184       -2.45316545677471
H            1.58293199462172        5.66069013170764       -2.55172557059701
H            0.58877155940873        8.34356562288944       -1.49132872716865
H            0.67207534826746        8.05206196431062       -3.20691935718540
H            3.13282777392091        7.46198998684447       -2.96492497640020
H            3.03932850592868        7.90428977998617       -1.28558716660570
H            2.22947979225080       10.21619512599078       -1.98516961256860
H            2.51164101942284        9.77416217004013       -3.64601044064000
H            4.95398798454152        9.32718221369183       -3.08624920213336
H            4.63549487697687        9.77245080589553       -1.43832153840075
H            3.77942171265549       12.06157699322214       -2.37511698347346
H            4.53680498984558       11.60170158706196       -3.87992357354943
H            7.36957953589421       13.92632829820123       -2.79201547761588
H            7.26691413567020       16.16497884705116       -1.78309380238978
H            5.58864386259367       16.66971434764868       -0.08839561409260
H            2.46955912068680       14.10957105306078       -1.11440785764396
H            0.03247267321838       14.13541766917154       -1.13935487450456
H           -1.23812214023405       12.33803775129961       -0.02773528021732
H           -0.06219452159254       10.51125597744059        1.07840659766393
H            4.15009081694025        8.23978223283420        2.26272914924266
H            6.58978160984202        8.17901574523207        2.26431802000798
H            7.87376875580735       10.01632815661712        1.23596260536385
H            6.71795955625636       11.89645482874362        0.21003199283477
H            3.47285584512678       16.79352012066236       -0.11287956303324
H            3.94383472470133       16.89858619155354        1.58819829676751
H            1.22139046516673       15.95514479428287        0.54620683757368
H            1.51702585039234       17.56273805809134        1.15910293900778
H            2.10690234985821       16.61495607455004        3.39693875866301
H            1.91751836851278       15.00563308253842        2.77715157122877
H           -0.53464588111219       15.53134619302478        2.26498655856001
H           -0.28956259269510       17.13072932244421        2.89950309069702
H            0.50861189865815       15.81606527159256        5.10655357529738
H           -1.17828599585920       16.12907617707914        4.81165041480702
H           -1.51245590654065       13.85028842707607        3.89702272317351
H           -0.87497918921835       13.78965857644779        5.51755816648630
H            0.71472147959855       13.37898487640881        2.94065176092496
H            1.46108049748962       13.48516746954694        4.51359034822435
H            0.22392965675909       11.44307670421341        5.25277171588541
H           -0.61249831629911       11.38556202959184        3.69565543214762
