86
 energy: -15.986359792957 gnorm: 0.000561422389 xtb: 6.5.0 (97a52f5)
C            4.06598670992794        3.34010193114161       -5.04690932932013
C            5.18037643210970        4.05989855168575       -5.40252148675993
C            5.40434557268877        5.33152779887053       -4.87733607810077
C            4.46213855779386        5.90368960165068       -3.97703817402041
C            3.33477433430290        5.12689879963871       -3.58463669861159
C            3.16130736484162        3.85985479854867       -4.15022517960128
O            2.44644285968471        5.63295978474063       -2.62867052749049
C            1.79567349067919        4.62045867633271       -1.85703290173484
C            1.18429134322413        5.13944758519135       -0.55831325602848
C            2.13397800690151        6.08034668363277        0.18410475227381
C            2.12129930878181        7.47761562634387       -0.42859395550936
C            3.22745711908313        8.39535202285546        0.07741230824796
C            3.08806363131420        9.79301538411742       -0.51598968520966
C            4.29364537164256       10.68570336169059       -0.28467142815744
O            4.13828721991316       11.94708359007576       -0.94604083044147
C            5.15651043886954       12.31748042196805       -1.84536236587104
C            5.55271048214566       13.65524899647403       -1.78568681424678
C            6.54762062575343       14.14857825808533       -2.59342240350398
C            7.15855431162104       13.33128582656260       -3.51336106050505
C            6.77569216723787       11.99635428342113       -3.66185288912631
C            5.77361434827437       11.45742893455054       -2.80177517843389
C            5.36934153887238       10.04155781091710       -2.98959867901784
C            6.23549485046828        8.98834129858323       -2.58289888834356
C            7.45192991673376        9.26919603257893       -1.92079144793392
C            8.27664985579894        8.27103193711252       -1.49868305491339
C            7.93067681128329        6.93491969558847       -1.71740931353396
C            6.77080385512751        6.62391656620984       -2.36001675913829
C            5.88926592596873        7.62834331022787       -2.82061438143387
C            4.68718254247883        7.28991600344586       -3.50746276316174
C            3.79905486247301        8.34304236130785       -3.87526706078148
C            2.58108622778333        8.07210914935310       -4.53810291521182
C            1.74444134819602        9.07433953859274       -4.92636624710911
C            2.08271876179901       10.40829520912303       -4.68214487105884
C            3.25180488573245       10.71436554089640       -4.05427731215045
C            4.14360876944400        9.70456687051501       -3.62946348751412
O            7.34209354484117       11.16495697603163       -4.64635894766797
C            7.51589751220215       11.78982715232718       -5.92284671136275
C            8.38142635806755       10.96936038891814       -6.86611294469031
C            7.79760105829943        9.59148312138350       -7.14794361101038
C            8.66013826981957        8.77859893806758       -8.11414369575256
C            8.11181435803747        7.38648433372794       -8.44440102442413
C            7.95614698326732        6.48337946894392       -7.20761166504272
C            6.56567675735962        6.54155055044782       -6.58144683839625
O            6.56733490409499        6.05110296634462       -5.23567032099588
H            3.90512282356128        2.35986922479824       -5.46553696723336
H            5.90322691053164        3.64939419187287       -6.08476763883791
H            2.29517667493042        3.27989393212808       -3.88979198311468
H            2.55275824834924        3.86037744541088       -1.62869011320313
H            1.03243385133395        4.14645978632135       -2.48504284706158
H            0.89368719189467        4.29412795848526        0.07968157900923
H            0.25353034718889        5.67627213661220       -0.77651822161633
H            3.15016354613650        5.66951679459881        0.15542221211929
H            1.87351696644058        6.14671183458002        1.24860390468536
H            1.14420666425804        7.94554044183511       -0.25514552766647
H            2.20120148616107        7.39509805214749       -1.51895060233850
H            4.20507581026367        7.97333101579823       -0.18591478922800
H            3.21553940525112        8.44411988714369        1.17272777751686
H            2.18842929796511       10.28338903418156       -0.12639900063271
H            2.91234275088600        9.71260464281475       -1.59284848027067
H            5.21858481400180       10.20738965606099       -0.61862719890199
H            4.42704361420315       10.88777957692835        0.78443548236394
H            5.06958471065162       14.29329977610460       -1.06715159433908
H            6.85191045477487       15.17878249388165       -2.50268592416710
H            7.96407010013856       13.72273465549581       -4.10670416934489
H            7.72299808917586       10.29653032807861       -1.75131669748675
H            9.19893050072858        8.50899714982018       -0.99435463870673
H            8.58774902898747        6.15029195654452       -1.37939548139615
H            6.51316311258120        5.59357036401283       -2.53163978296678
H            2.31145332910709        7.04816553524759       -4.72544648834350
H            0.81748151974726        8.84103167441141       -5.42429390165251
H            1.41464547008896       11.19479734344869       -4.99303894698281
H            3.50842967400850       11.74210831497804       -3.86668023476303
H            7.94985353488825       12.78417449767088       -5.78536373894634
H            6.51579472895176       11.93681149027576       -6.34628722826693
H            9.38078571175826       10.85732846365192       -6.42982850060500
H            8.52990157128967       11.50658989970936       -7.81128138404097
H            6.78298872472820        9.69409335222416       -7.55058870778951
H            7.68320476536037        9.05638458517182       -6.19817222778017
H            9.66748866059530        8.67801157983137       -7.69158868048395
H            8.79748963595104        9.35356256090101       -9.03914122367130
H            7.14360247522931        7.47709416609877       -8.95128336062593
H            8.77383998291093        6.90461302594531       -9.17731461629697
H            8.69853865579534        6.76770139049348       -6.45288838567751
H            8.19002288197900        5.43821890862731       -7.44797063625626
H            5.84222191863161        5.97027752277441       -7.17467050653984
H            6.18393076364303        7.56667721466269       -6.54318440566428
