87
 energy: -19.667461732357 gnorm: 0.000819978476 xtb: 6.5.0 (97a52f5)
C           -1.75382225931434        3.23251704898505       -3.74393584684414
C           -2.61640007855764        2.36382115286814       -4.37908360027891
C           -3.26616868375840        1.33650920025460       -3.68448215744394
C           -2.96607208068301        1.17790762101437       -2.29344673888057
C           -2.09549797078644        2.08853270652380       -1.64540391076458
C           -1.49927628367872        3.11239382205682       -2.39746645774018
C           -1.85242516318265        1.93823766803137       -0.25473676025066
C           -2.43414367483188        0.93129603653181        0.45229025457470
C           -3.26675043141294        0.03279471391963       -0.22241033734104
N           -3.49838046367752        0.16687198608907       -1.55522740190457
B           -4.41617694420314       -0.98375456394276       -2.00764807275728
O           -3.66468062321980       -1.93718211710989       -2.87629050341204
C           -4.03440712718502       -2.79918554261693       -3.86847491305262
C           -3.37730615198325       -4.03179999331239       -3.96380584988515
C           -3.74251651187803       -4.97500620512664       -4.90151213365347
C           -4.76958683687157       -4.73026033790756       -5.78326912277718
C           -5.45326520068004       -3.50491872817679       -5.76219684441365
C           -6.51472472342352       -3.22079418837578       -6.66141097443342
C           -7.15328307833236       -2.01917082890856       -6.63334158930623
C           -6.73245703833403       -1.05827143581924       -5.70846686240172
N           -5.71412446333439       -1.32323517563472       -4.84734817576627
C           -5.07064136056466       -2.52125345571815       -4.81710037447834
B           -5.46133913717552       -0.06927568920736       -3.99140263843479
O           -4.15535147159833        0.55163163766440       -4.36071552401940
O           -5.60817503317044       -0.41996812408362       -2.59789311878095
N           -6.60036754585542        0.88132832101209       -4.40949480378878
C           -7.25831313711933        0.26257314545594       -5.45019239231977
C           -8.27651679428906        1.12868906089311       -5.86794594571062
C           -8.20754617771447        2.27418019329177       -5.04484717404402
C           -8.98316537836678        3.48861670559786       -5.00466286379219
C          -10.02743524721526        3.71428505624455       -5.90772900018244
C          -10.75305581601302        4.87518815143853       -5.86240068086912
C          -10.45464375855173        5.84166340297359       -4.91390881811437
C           -9.43430617718896        5.64386951408235       -4.01632450649044
C           -8.66815379441515        4.47144184017399       -4.02707102541915
C           -7.58256424186834        4.24565127694223       -3.06140026340698
C           -7.24562650535272        5.17091145648404       -2.06516189249337
C           -6.24056736662553        4.91598280906956       -1.16233520542687
C           -5.53543576751255        3.72170257656696       -1.20800169409159
C           -5.83642239301470        2.79315725589890       -2.16600606051062
C           -6.83767794916378        3.04299897473777       -3.10547911688045
C           -7.15113002966180        2.08893944780046       -4.11855699843824
N           -4.77716249623383       -1.69208155953742       -0.68640164030568
C           -4.02857381721842       -1.07980233453994        0.29535126149849
C           -4.31775988803508       -1.72797413475950        1.50243670518410
C           -5.26423758537859       -2.73467176599880        1.21281081131075
C           -5.93568070306833       -3.70160253919025        2.04448019377435
C           -5.68113290992255       -3.78153267493644        3.41784654465505
C           -6.32565843879413       -4.70621613894409        4.19611566689171
C           -7.24144460449256       -5.57543247320563        3.62302781210353
C           -7.50874009681537       -5.51669253543908        2.27729146687653
C           -6.87268821188948       -4.58675677273783        1.44542920932126
C           -7.16428823905443       -4.50671117399661        0.00639844942988
C           -8.08646771758433       -5.34660249919684       -0.63111700815048
C           -8.35518168819850       -5.22628722139453       -1.97411723013927
C           -7.72341507791041       -4.25426972271465       -2.73679985997804
C           -6.81572774866307       -3.41618632178254       -2.14993384369076
C           -6.51135759438330       -3.53867750629545       -0.79343296384350
C           -5.55108639104283       -2.68492094797190       -0.17435001556557
H           -1.28070115532057        4.01965005922696       -4.30781040952629
H           -2.82769207440683        2.47600486016535       -5.42746456467731
H           -0.83243591104923        3.80056157479691       -1.90791990530510
H           -1.20104558459390        2.63951988884409        0.23730362181578
H           -2.26544705261358        0.81495767634276        1.50827682082891
H           -2.58738872585120       -4.23807581990380       -3.26391846604907
H           -3.22226085679024       -5.91807020269725       -4.93772508681858
H           -5.05455633738881       -5.47623282591095       -6.50459219587684
H           -6.81140560771661       -3.97557769964000       -7.36891103531789
H           -7.96501264714438       -1.79766192314567       -7.30350725002227
H           -8.97997463170562        0.94464981526660       -6.65965938526518
H          -10.25562559089677        2.96249103641402       -6.64283470999244
H          -11.55575154196945        5.03838366176592       -6.56274036519274
H          -11.02882881970810        6.75335338918187       -4.88209993872421
H           -9.22608148479268        6.41004025010509       -3.29232034895443
H           -7.78028105222720        6.10053855476938       -1.99729716449896
H           -6.00076209561662        5.64607748382712       -0.40683794919988
H           -4.75359432414480        3.52499099972678       -0.49319646088228
H           -5.31886836646967        1.85110973382862       -2.19965206924470
H           -3.90643433983249       -1.48670947969516        2.46591602134635
H           -4.97007089271387       -3.10527000696357        3.85899178783873
H           -6.12252112816625       -4.75890132286027        5.25321215127909
H           -7.74715621564393       -6.30025723009348        4.23996566778798
H           -8.22507225499193       -6.20104115828380        1.86141262767674
H           -8.59915047542639       -6.10277611619268       -0.06558836173585
H           -9.06780217955498       -5.88727326750215       -2.43970666017439
H           -7.94470763232133       -4.15867816986318       -3.78696510574299
H           -6.33593694048907       -2.64058183547779       -2.71966872828906
