38
 energy: -7.166217997892 gnorm: 0.000887172305 xtb: 6.5.0 (97a52f5)
C            0.74040634415453       -0.05774002078578       -0.40781938345949
C            2.14262837766296       -0.10506707535014       -0.29983550640086
C            2.88839150044942        0.93304844179003       -0.81762244294780
C            2.19836676931508        1.99011854350870       -1.43001900160047
C            3.10520522722900        2.95438710536959       -1.89983169967567
C            2.59333950914146        4.06760912630120       -2.53469193027428
C            1.19945451560222        4.18539968758779       -2.68176496179046
C            0.32555966429405        3.22939329144333       -2.21433609140623
C            0.81153521840519        2.07318871201478       -1.55754045270823
C            0.08256035017279        0.98899350600867       -1.01319367539056
C            4.40913583167255        2.48622554830466       -1.56927857850086
C            4.31967277205608        1.28005555497611       -0.92082104724200
C            5.34750571122473        0.45842122924332       -0.41365952876379
C            6.71804962683876        0.60526164643413       -0.40547804176390
C            7.55654067681814        1.62879136050374       -0.90168848916836
C            8.92657877873489        1.50457260936009       -0.74369614398430
C            9.77770138054060        2.46146393711717       -1.19950889092258
C           11.02549222829636        2.87163093097034       -1.33826350512578
C           11.32873324159299        4.08083054261141       -1.96374540192619
C           10.60794833848693        5.06172543094014       -2.54283777140582
C            9.35485933296308        5.39119454377465       -2.81137189281805
C            8.14606640283458        4.85252291549067       -2.60360517513131
C            7.93485237248049        3.71592499496548       -1.99144820031788
C            7.07772698719653        2.77886237105703       -1.55466086041966
H            0.16365099290324       -0.87162277444779       -0.00027978514616
H            2.63191150002660       -0.93497404286523        0.17797852167965
H            3.25961433708365        4.82576259452376       -2.90617423740454
H            0.80503061410792        5.05668409241727       -3.17815205066518
H           -0.73608385951700        3.34821891473717       -2.34226855853632
H           -0.99128646390405        0.99728290236628       -1.07960962533106
H            4.97978124750966       -0.44331896791274        0.05093715063879
H            7.26480453404043       -0.19921886736444        0.06369143148672
H           12.92548334224453       -2.16013284727417        2.77626915787050
H           11.83035684634113        2.26612166078607       -0.96037435578085
H           14.52235731988781        9.01016859352316       -2.51724882533549
H            9.10860672618736        9.24417064235307       -5.25223919704175
H            4.52369777215139        7.13329674028006       -6.00372386527849
H            1.84047394448172        0.80582642166671       -4.07471708414852
