126
 energy: -19.454486211668 gnorm: 0.007142657427 xtb: 6.5.0 (97a52f5)
C            0.96855382370225        0.06312975761345        0.86745765969582
C            2.46584061056536        0.13301884293833        1.22186147627062
C            3.30672172138171       -0.31806790653861        0.01261722838311
C            2.82003295617126        1.59892603418858        1.53989928542044
C            2.75032420568197       -0.79714661036942        2.41168086121111
C            3.29236847077123       -0.32215911708793        3.62135209119881
C            3.55325222394591       -1.15450099423915        4.68235148200702
C            3.26954578711961       -2.51176216972496        4.55771027338814
C            2.73446355303012       -3.00661305615231        3.35890055728821
C            2.47596713355342       -2.14606395329219        2.29168590569262
C            2.57515549578208       -4.43260969791551        3.51600434144616
C            2.09098521957009       -5.42309826368750        2.66078079662804
C            2.04467257830717       -6.73760109912438        3.08447220395576
C            1.50898935043112       -7.81533583700685        2.12864004581471
C            0.05766279066225       -7.47573837595474        1.74034445247501
C            2.38835773908603       -7.85544405782821        0.86471506307922
C            1.52318943114925       -9.21500957794470        2.77415733371758
C            2.49282823610574       -7.04531366164858        4.38338644894211
C            2.97516214444564       -6.08392816657820        5.23734803888923
C            3.02288620480496       -4.76182661012755        4.80402740259245
N            3.45030226036186       -3.58552223443567        5.45432105295103
C            4.01010160065353       -3.50549117157410        6.77628377304720
C            3.49409127145649       -2.61794722134185        7.71411416493463
C            4.03689225541818       -2.54979269528939        8.97959240270234
C            5.09646829257311       -3.35935316357148        9.32172182744963
S            5.77944876668326       -3.25196014289864       10.98530645511839
O            5.50804497638216       -1.87222714723754       11.55021142879483
O            5.26844847306087       -4.47714073741961       11.71594396450302
C            7.53395697156196       -3.36962630816411       10.63152969802264
C            7.99630242161868       -2.56858901099471        9.60447710235302
C            9.25184175374327       -2.56364003623069        9.00497301976633
C           10.20875309331134       -3.51689645401431        9.04500333756041
C           10.23465405432284       -4.79225236997763        9.55779032119554
S           11.43938308056619       -5.50095520099201       10.27370889736428
O            8.28572839803789       -5.88066170959324        8.54610716555551
O           17.73276502895217       -9.85277018385686       18.60611858312573
C           10.50464852393656       -5.97555006204951       12.87717425323681
C            9.61522988859731       -6.97082834747811       12.84794795670738
C            8.38020775469494       -6.85881560214379       13.37485723514129
C            7.88491083693021       -5.74720386861978       13.93096329739767
N            6.69774021346316       -5.55232029306629       14.27535483199018
C            6.21774167983361       -4.40739647620545       14.67202940289611
C            6.88337484207090       -3.24222260376629       14.77139519053819
C            6.30986156528489       -2.06249319274762       15.11680156010795
C            4.92324980495172       -1.83358134972017       15.39163019459315
C            4.26046557768713       -0.89541326940926       14.48324395250186
C            1.88335512106570        6.58320609935963       20.09738056775584
C            4.57400768572622       -1.70593219390270       16.80798263615283
C            6.81497634109883        6.66393057652458       19.16793285238552
C           -1.05722465233490       -1.51976066830115       16.02051079873733
C            0.08249139630629       -1.75378518510795       16.64236026864444
C            1.12281841899459       -2.45279369023246       16.18896735377859
C            1.23111232687346       -3.04614367947243       15.02567138015199
C            2.36515362935854       -3.78422799759691       14.54932639737412
C            2.71242989953393       -4.97232454394966       15.33022823198822
C           -4.76850677833947       -7.15902593031293       22.42381531615016
C            2.43381285026133       -3.94908523800162       13.09626129913091
C           -4.90758440736690       -9.26951385036554       17.88232131083034
C           -2.08069608568373      -11.14452549766176       14.10974348414282
C           -0.83295397101985      -11.31126373532195       14.34348698253238
C           -0.44035933917402       -8.03445696649521       12.17814694108921
C            9.78984963291103       -5.03927630419621       16.01586183351909
C           14.63968602765130       -7.60931093972596       19.02825903166244
C            8.26913352642308       -4.18081180327831       11.38861268784433
C            5.62134096696930       -4.23834914707405        8.39973062958790
C            5.08268627683210       -4.31333374652682        7.13468761572350
H            0.73222966886778        0.72981799161842        0.03918654677376
H            0.35784124562684        0.35492306987956        1.72085313485942
H            0.67665680884861       -0.94454681336768        0.57616121975187
H            3.13992956362266        0.33409487806417       -0.84381388539907
H            3.05417440818690       -1.33350685340769       -0.28847619338510
H            4.36878800723937       -0.29474677022096        0.25322530941589
H            2.60837379964035        2.24102173456880        0.68570782396468
H            3.87820159491041        1.70486152302458        1.77521799622638
H            2.23729289686395        1.96952035977414        2.38224175175648
H            3.51492767838425        0.72458291785362        3.72474447628145
H            3.97645175244554       -0.78055662901596        5.59711748296876
H            2.06852896015422       -2.54594571736518        1.38213720259059
H            1.75661236906104       -5.15014072543110        1.67747582480858
H           -0.00139365554773       -6.51785785738508        1.22615595671986
H           -0.57417496070304       -7.41975015719603        2.62590490733603
H           -0.35642886335528       -8.23466789937591        1.07762631185451
H            2.36884232818824       -6.90251457478925        0.33851060771334
H            2.04431856883043       -8.62433449027661        0.17403953170869
H            3.42370959027885       -8.07309764429239        1.12420556805336
H            0.89796222930159       -9.24206896850004        3.66583563667359
H            2.53506928258096       -9.51008927788740        3.04940349438170
H            1.14016739138280       -9.96366722102502        2.08148151805864
H            2.45881820765271       -8.06395454682156        4.72557056880558
H            3.30790008359892       -6.33178513983260        6.22925874731767
H            2.65995547374089       -1.99609167366073        7.44037693212772
H            3.63958635739887       -1.86732965634280        9.71198900222587
H            7.28153988452912       -1.85113108366463        9.22601319259293
H            9.47719809967541       -1.72092658804213        8.36810027721608
H           11.42713286468370       -5.99410300467721       12.36866274376245
H            9.87043192741878       -7.89341398619990       12.35174804797324
H            2.27654664000253       -5.18659981211386        8.71864866019151
H            7.93225876127313       -3.23987313373588       14.52725476409262
H            6.38310771137100        2.88166280072206       14.98074020792009
H            3.20348052996991       -0.85308235504939       14.64837341357178
H            4.45188620823379       -1.13612808335347       13.45730744880392
H            2.19850745894453        7.24687218090712       19.38416219457181
H            2.21479909277169       -1.84599557364752       20.68708934194289
H            2.14202505186007        2.08944855057523       18.25988332802819
H            4.89880020210970       -2.54924243855875       17.38098037421426
H            5.96707586144876        0.25848878703377       11.10937458615781
H            4.96323430929632       -0.80769241609573       17.23795205384627
H            6.57124632400634        6.78054397080471       20.15487164443797
H           -2.30855332601524        5.29029413558512       21.59345664385080
H           -1.83539853193350       -3.71797108411733       20.99060326269688
H            1.97248964284695       -5.74117102650041       15.24645458852607
H            2.88139859537928       -4.74461017079918       16.36344440326312
H           -4.84507789996044       -8.18012949975846       22.45762263053909
H           -1.23509005763409       -3.75424979512392       13.47510610567082
H           -1.75178005157164       -5.92843318513103       17.22573829734022
H            2.31267260658479       -3.01906761140403       12.58007850053086
H           -1.10121164106718      -11.59993857255510       18.93501886110959
H            3.35493961102379       -4.40285045651737       12.78956373111713
H           -5.91291779955874       -9.12878279791420       17.76260883094712
H           -2.62344697509953      -11.74668175810261       13.44345646233213
H           -0.69236365004711       -8.84302566035958       12.74652832531869
H            9.14965614963275       -5.31433403119823       15.25866801172853
H           15.47603281674608       -8.18214000175354       18.91869224041303
H            7.89940518756931       -4.73244181818203       12.20625619407697
H            6.47445475794369       -4.84644718858623        8.65679335506626
H            5.49500676505558       -4.98870736723552        6.40554812696444
