38
 energy: -6.959438285554 gnorm: 0.001202816029 xtb: 6.5.0 (97a52f5)
C           -3.75441305955672       -1.90534924838169       -0.40895473612576
C           -2.44756779349235       -2.38836704051869       -0.29649504320728
C           -1.42239478620737       -1.53929809115002       -0.14963810130452
C           -1.62604188009962       -0.16722158849471       -0.10426330896143
C           -0.50409308154900        0.72289836026241        0.05564423024821
C           -0.74528955299514        2.08117004558955        0.10060880704220
C           -2.04303158511494        2.58619863538228       -0.00609319566705
C           -3.11390392611368        1.75126021562666       -0.15903864712156
C           -2.93359848091928        0.35152530132810       -0.21251277758366
C           -4.00103204816321       -0.56145086533491       -0.36893975301473
C            0.78996493131401        0.13133444644909        0.15861940734262
C            1.83312097566442        0.94468581003985        0.30525919047898
C            3.11850824176610        0.60321437729553        0.43969975725813
C            3.62827478130821       -0.60193225874676        0.48903056513483
C            4.91377951139340       -0.95646796927129        0.60762793360811
C            6.00787779845370       -0.19645829964734        0.65862460577715
C            6.09742593194151        1.14996388445808        0.55752410233192
C            7.20186997777957        1.87396357679880        0.61825662584226
C            7.25227053601359        3.26144665070383        0.53289381589330
C            6.39903822181991        4.22037812598152        0.05538092491358
C            5.35261314641442        4.04981730866393       -0.81873943735303
C            5.01883489937816        2.88575691722287       -1.41403143756671
C           -2.12546295714974       -6.12722010062566        0.04404192209625
C           -2.47037513297134       -6.06103286447519       -1.19037192156000
H           -4.57016406926946       -2.59929155360131       -0.52914873894000
H           -2.25628231096283       -3.44753521408635       -0.32947240756987
H            0.08305235229353        2.75732293411326        0.22117570997594
H           -2.19932665500628        3.65182857573800        0.03340515441196
H           -4.10975050708864        2.15143777017612       -0.23953094423483
H           -5.00562935420090       -0.18542797078243       -0.45581601779141
H            1.34493332269759        7.21836836254322       -0.10271954298159
H            2.21729257441136       -7.19582730392350        1.37991903081823
H            8.46925128003316       -6.49891053397897        2.01587330549581
H            8.13108474648438        1.36185315695976        0.80656778537019
H            6.60816701158075        5.22843239410981        0.37957923147301
H            4.77446009022798        4.92331663944218       -1.08004284103977
H            4.22500804051369        2.77335344116489       -2.09265153073185
H           -2.43904120660758       -6.89696600192603        0.68630826504685
