54
 energy: -9.570550291964 gnorm: 0.000578290842 xtb: 6.5.0 (97a52f5)
C            1.98874521699381       -0.71565722574774       -1.44688914584518
C            1.65500802384254        0.64117831601133       -1.55732737579591
C            0.57509931221926        1.12975438002803       -0.83939572643262
C           -0.12812552374857        0.21775377090091       -0.03010891262918
C           -1.17289393918725        0.88810880944413        0.60317440758529
C           -1.99427303197108        0.13838703642382        1.42932402929546
C           -1.73166581319738       -1.23067873708545        1.59320033528798
C           -0.68540208166480       -1.86572240043622        0.95800548682742
C            0.17029991878188       -1.13777059754139        0.10002160140556
C            1.28031462234524       -1.59204797073343       -0.64959732592747
C           -1.03475818008962        2.26830334446085        0.11116991617458
N           -1.84523358913324        3.34888885747564        0.45301099270110
C           -1.70867919366200        4.61359814835580       -0.27952664695377
C           -2.02540772111805        4.44993524536197       -1.75543190133078
O           -1.71972447924658        5.59215144622932       -2.54424209714879
C           -2.51872132408064        6.73277405651698       -2.26036960745112
C           -4.00347395243845        6.50832819430263       -2.50094080930375
N           -4.78401116488018        7.74284318918097       -2.47801840403096
C           -6.21161358887677        7.58805012316091       -2.77156820736770
C           -6.91520838306514        6.71969285368818       -1.73844803254717
O           -6.42634869920092        5.38383373332044       -1.74847465860804
C           -6.97992355247627        4.58215510581022       -0.71355178648293
C           -6.08249999917327        3.39613903488295       -0.38921235340635
O           -4.83384589163040        3.82256032108427        0.14778820629591
C           -4.21142263031156        2.81984237459079        0.94506918016053
C           -2.87251821686023        3.27936248637785        1.49709690934144
N           -0.01132456295769        2.37690676335243       -0.73013110612678
H            2.83022051939350       -1.08663638028041       -2.00837703246937
H            2.21888995568581        1.30547761668419       -2.18690395141474
H           -2.82961842849500        0.59137042437836        1.92999443080865
H           -2.37509470979303       -1.80554300449285        2.23857911631018
H           -0.51093703292670       -2.91738552765785        1.10235961858101
H            1.56129397119528       -2.62870422407100       -0.59004121732839
H           -0.68289412907410        4.97112795364668       -0.15587539823939
H           -2.36003789167089        5.36538201063767        0.17251519690950
H           -3.07413130985762        4.17297048962382       -1.90538749414350
H           -1.43448331648040        3.62450862162348       -2.16864486151768
H           -2.15186045703267        7.53568734538720       -2.90988481281556
H           -2.32520136781326        7.06015644610339       -1.23359445923481
H           -4.41196708222591        5.83814207927968       -1.73917770774619
H           -4.15149469774607        6.00493070952603       -3.46219443057498
H           -4.36496084055038        8.42486785989776       -3.11633417030754
H           -6.32739918644527        7.14055681715003       -3.76424243188612
H           -6.67867511403751        8.57913110456096       -2.81371865979502
H           -7.99769525789389        6.68320068759610       -1.91081334996883
H           -6.75267660054559        7.13310879569049       -0.73679590562139
H           -7.97862775597565        4.26246431800617       -1.03420509240761
H           -7.10163114046491        5.20148506569537        0.18192039114918
H           -5.87400727585222        2.81437854700426       -1.29374118057419
H           -6.56746644228717        2.72607104700158        0.33063825797352
H           -4.08233054593226        1.92735856420553        0.32274244579763
H           -4.90194860939657        2.56238727873516        1.75758805238286
H           -2.51007297165431        2.62378083568958        2.29341047702003
H           -2.98224385733522        4.26744385896200        1.95192720140803
