38
 energy: -8.596208299473 gnorm: 0.000885192555 xtb: 6.5.0 (97a52f5)
C            1.23812464771086       -0.17664159138627       -0.13187806677243
C            2.62959962343149       -0.14174036080630       -0.08188630734122
C            3.30175984238490        0.07929275104579        1.10824942877983
C            2.54749914733668        0.27287483555460        2.30121925558938
C            3.17654992269690        0.49761216174773        3.53467598216438
C            2.43511333660601        0.68963699381424        4.70983564205766
C            3.07536164239869        0.91485817399671        5.96240715787586
C            2.29487853336502        1.10123593926459        7.09075458748812
C            0.90407451050199        1.07142787964194        7.02212044544169
C            0.26922070691003        0.85502468851843        5.83328490351142
C            1.01080503986241        0.65739479416355        4.64489001089485
C            0.38500731677317        0.43201397452715        3.41575384868897
C            1.12287615558589        0.23836159939176        2.24476269462804
C            0.49505947465795        0.00821600050444        0.99809335137351
C            4.52241538560532        0.94058233813125        6.02239305726332
C            5.32834049325531        1.13336562772737        7.13040037067100
C            6.65767462416901        1.07288599956710        6.70036232813369
C            6.65041861573666        0.84715999963520        5.35226595333332
N            5.34582320893751        0.76191987538958        4.91006702099818
B            4.69423290964879        0.53414913541574        3.59920103471079
N            5.46484603342108        0.33934624670006        2.34894418920139
C            6.80485064726243        0.31656345478752        2.01936588730697
C            6.93729915417058        0.09064460410748        0.67778999881075
C            5.65367213706319       -0.03327457827147        0.13681746935725
C            4.74828586605279        0.12167373099519        1.17150840824001
H            0.74502781568642       -0.35112051632314       -1.07419848702651
H            3.19467900367966       -0.28881659491926       -0.98508597286130
H            2.77370819609471        1.27222973133738        8.03849079902371
H            0.32509335022098        1.22064329579577        7.91882827856379
H           -0.80576363423811        0.83224446546552        5.78685734433882
H           -0.68833381592316        0.40666530651133        3.37004875422181
H           -0.57986222780533       -0.01948346863154        0.95282644592143
H            4.99550843683969        1.29786063087951        8.14152623621393
H            7.53197432970920        1.18244471330175        7.32245427320788
H            7.52135524044921        0.74720488904541        4.72859882957959
H            7.61378000230047        0.45887776508805        2.71424187714039
H            7.86545808256079        0.02229557333050        0.13256408812320
H            5.41610624488083       -0.21444006504464       -0.89805111885348
