108
 energy: -21.161724394123 gnorm: 0.000516910401 xtb: 6.5.0 (97a52f5)
C            1.42242190714855        0.32917745119409        4.06697372960244
C            1.24892098087063        1.28595560317939        3.09199276155404
C            0.19720988715784        1.21664613846104        2.20090101187462
C           -0.67320723549994        0.12825640462876        2.25104760634191
C           -0.51303545340675       -0.80453009877395        3.26981769149346
C            0.52495184791084       -0.72670342785569        4.19029342795694
C            0.66133058043689       -1.74543866123269        5.25640347586293
C            1.28210595225235       -1.45824751649808        6.46773239603039
C            1.42183326660062       -2.43198761026161        7.43109979210858
C            0.93679424980313       -3.70893727897177        7.23364708997875
C            0.24475318089764       -4.00616423566403        6.05985413018312
C            0.15240525216254       -3.02605081139960        5.07755217638261
C           -0.36863142316200       -5.32928611870981        5.86912829526362
C           -1.37467296097759       -5.51696086844750        4.92652502056012
C           -1.94256383375395       -6.76139910157049        4.67975618100648
C           -1.47125618279140       -7.84127853094081        5.41998004631161
C           -0.51069439361456       -7.66216167229152        6.38995567180478
C            0.03391797819505       -6.41974453868847        6.64104828028044
C            1.04281207868714       -6.29224968016221        7.77540798823602
O            0.56769923954576       -7.11418603263654        8.88813185299419
C            1.15635472237264       -6.72049976077698       10.10534546058114
C            0.60984823792520       -5.33428512762176       10.51190535640367
O            0.23249927901818       -4.57967715483034        9.37268317906107
C            1.19060070588707       -4.76156292556165        8.30532563013301
O            2.54406517240395       -4.61678777621386        8.80917578239202
C            3.54260914729297       -4.76286434368698        7.79697483619492
C            3.14125916817243       -5.80127868282142        6.73339112534029
O            2.33426938820808       -6.80156721446140        7.32226051026797
C           -3.01078062502366       -6.92034514672202        3.66474622956889
C           -3.89166118194940       -7.99703021688100        3.69648168699522
C           -4.85137264348637       -8.14814457496747        2.72140297183902
C           -4.98584137108653       -7.22953454800849        1.70086023570488
C           -4.17110441218185       -6.09753393592302        1.68486665542678
C           -3.17277689971996       -5.98589272394445        2.64787162155471
C           -4.36760431106553       -5.05049549743281        0.66952985409069
C           -3.84532649889885       -3.77376729333219        0.85294896612330
C           -3.96318763100952       -2.77449796291024       -0.10644096302099
C           -4.64298587814874       -3.08515239346857       -1.27966609451463
C           -5.20726267808690       -4.32832509637572       -1.45493111351415
C           -5.09525478930986       -5.31050902625076       -0.49269387607707
C           -5.78321536235939       -6.64451825163454       -0.75070185906129
O           -7.09176415835893       -6.36795186418929       -1.34070434918346
C           -7.94752083163494       -7.47997492021467       -1.22322938330014
C           -8.33487192040028       -7.67121759095954        0.25999520644805
O           -7.32741588045486       -7.16509709605995        1.11873097520510
C           -6.01573597672216       -7.50195636966816        0.61216634058240
O           -5.96175865334346       -8.90525183947591        0.24451411537571
C           -4.68121028502490       -9.31180823245969       -0.24178340776909
C           -4.00067868552494       -8.20607731494368       -1.06978625393371
O           -4.98326510552676       -7.41049379662222       -1.70190076324311
C           -3.36845752264179       -1.43530911534550        0.11488363860716
C           -3.81542788385849       -0.31279411447625       -0.57534605846481
C           -3.20881494156320        0.91011277722416       -0.39517258900338
C           -2.16165024575445        1.06899904204730        0.48896515451666
C           -1.73759797985012       -0.02249263559082        1.24766006357747
C           -2.32808610485365       -1.26130408139225        1.01989714563638
C           -1.49203352248453        2.43462137398506        0.57675341774002
O           -1.39143387610259        2.96813953995903       -0.78180531561512
C           -0.40105761810467        3.96507192136196       -0.87201097194177
C            0.99140040256963        3.31782197121108       -0.70700746885592
O            0.92135601899218        2.15061887312695        0.09481503592875
C            0.00849472705054        2.34826549476511        1.19827482766131
O            0.26881611489399        3.61747668483319        1.85212261038846
C           -0.58795116299400        3.86409467224478        2.96950028051913
C           -2.00080023020372        3.29119042596480        2.75456577075780
O           -2.32693869590247        3.32458463766919        1.37938315922393
H            2.25863203436039        0.39713975086598        4.74035099091317
H            1.93218715173944        2.11460949598934        3.01559924504912
H           -1.23603343120223       -1.59122627142384        3.37247507830594
H            1.65410485132946       -0.46586584153232        6.65232849980337
H            1.92283128559399       -2.21115308179962        8.35825568040873
H           -0.29521512247151       -3.27540745159513        4.13444044951586
H           -1.75333496688258       -4.66250806657994        4.39949963718074
H           -1.86069134731277       -8.82640459383587        5.23393774552960
H           -0.17498401244095       -8.49594563839599        6.98302475100412
H            2.24110315494305       -6.69165020635572        9.94612474476698
H            0.94511965860495       -7.49166584470209       10.85649779148993
H            1.35481685562050       -4.74825177026155       11.06425718250339
H           -0.27984142422704       -5.42979575305813       11.14596360929631
H            3.72771974969269       -3.77702127035597        7.35521468089304
H            4.46366598877357       -5.06686969294663        8.30760616688668
H            4.01550972829091       -6.29527231977344        6.29158756783964
H            2.57561055418923       -5.34579655099652        5.91347836197531
H           -3.82556100012864       -8.71825846074898        4.49158903406349
H           -5.51269129259367       -8.99779987154109        2.73695197026581
H           -2.48018589810052       -5.16915415464855        2.58199710010516
H           -3.36552475673984       -3.54023176535357        1.78379175088759
H           -4.72429499617330       -2.34999859395335       -2.06052499152375
H           -5.75633562019598       -4.55435290535361       -2.35331733774157
H           -7.40231956939508       -8.35004376854277       -1.60896413901566
H           -8.81989391268100       -7.31534346603668       -1.86777687225376
H           -8.48170175316307       -8.72925770967522        0.51022630747839
H           -9.26256765196957       -7.13763880852186        0.49939492609729
H           -4.06991770957719       -9.61404819362037        0.61631413605760
H           -4.84762952358818      -10.20677813048876       -0.85240209371386
H           -3.35117913440047       -8.61850241680282       -1.85181698657336
H           -3.38294038561923       -7.55197071935821       -0.44498933027683
H           -4.64081904769627       -0.40069096204041       -1.25930331171590
H           -3.53548486298364        1.76737088118423       -0.95911469751825
H           -1.93672817346869       -2.12061894205483        1.52974088911031
H           -0.60057440336942        4.69299023689861       -0.07632110778777
H           -0.51406803866838        4.47763687298312       -1.83538209917819
H            1.70572801202329        4.00195285737220       -0.23243376448057
H            1.40620990291432        3.01930645431593       -1.67730967597488
H           -0.11067411856551        3.44724634152082        3.86380408080098
H           -0.62642913049175        4.95169526797670        3.10028482819159
H           -2.76344246760508        3.86823484215728        3.29210430465046
H           -2.07563761599073        2.25378201854939        3.09780889451089
