21
 energy: -4.389934731657 gnorm: 0.000798797741 xtb: 6.5.0 (97a52f5)
C            2.92003179914632       -1.19227482386540        0.00000342666399
C            1.62479155673143       -1.56765050015724        0.00000367373988
C            0.71365590990470       -0.46205556626616       -0.00000810411209
C           -0.74901251558143       -0.51807341127920       -0.00000266315507
C           -1.54782113015151       -1.62208646888152        0.00003341730605
S           -3.21143864494768       -1.16177205201051        0.00003686902787
C           -2.84771781531217        0.52562297249359        0.00000056156625
C           -1.49916437200015        0.72148060637865       -0.00001547682261
C           -0.77089125235309        1.99122535627588       -0.00002586732196
C           -1.32732498772726        3.31145388273001       -0.00002598886916
C           -0.39373043330924        4.28460905213546       -0.00002764831549
S            1.20907895379320        3.62531512880565       -0.00003562648059
C            0.61125484848349        1.98658748775845       -0.00002711298959
C            1.35086652654453        0.76444426470817       -0.00001683941723
S            3.07989339939986        0.53342194692647       -0.00001107258943
H            3.75883281103590       -1.86208744192091        0.00005223878965
H            1.29638214187734       -2.59511609556528        0.00001045683414
H           -1.20024300814803       -2.63598386341914        0.00006969664709
H           -3.58487696756249        1.30366857864955       -0.00000271295016
H           -2.38981256121684        3.49760101116020       -0.00001951012135
H           -0.59779425860688        5.33845993534327       -0.00002171743019
