52
 energy: -11.541952889030 gnorm: 0.000657027322 xtb: 6.5.0 (97a52f5)
C            0.96528715413538       -0.05432356256409       -0.01973738249832
C           -0.25852995192521       -0.03757140570282        0.03538095449492
C           -1.65278303367041       -0.00200880778322        0.08279246419358
C           -2.32734303895692        1.23159825824594        0.18869957542298
C           -1.61170543195887        2.45515468838007        0.26316426905159
C           -2.25692496124306        3.64550664166021        0.38590333616379
C           -3.65674003899674        3.68739239830051        0.44520047785889
C           -4.38231731243238        2.53928540111905        0.37164367445910
C           -3.75584981264439        1.27502412768573        0.23031312741962
C           -4.51297589407730        0.08169264311931        0.15413138293803
C           -5.99695244117218        0.12868054529112        0.17495221191914
C           -6.70889205926992        0.79264663127461       -0.82962631910269
C           -8.08429761241451        0.83452917064114       -0.81041164985354
C           -8.78292063042497        0.21391004099621        0.20689470920385
C           -8.10014766149821       -0.44886960109077        1.20836505534556
C           -6.72459292931058       -0.49144725061429        1.19611918486630
C           -3.83501992587418       -1.16841228610915        0.04708043403136
C           -4.54089320284858       -2.36954235218745       -0.05678148559610
C           -3.89782308755817       -3.59853364572477       -0.16889845342386
C           -4.61679275285464       -4.82031232221308       -0.26619533357750
C           -3.95964122028531       -6.00459816118718       -0.36955632621275
C           -2.55198983563021       -6.04494268700839       -0.38376788541303
C           -1.82589649945561       -4.90039363764911       -0.29561825782525
C           -2.47143874433701       -3.63906828360911       -0.18481045129549
C           -1.75937679001245       -2.44752202279236       -0.09367783201220
C           -2.39932311038057       -1.20884162544329        0.01618460014552
C            2.36952576475478       -0.05379973636504       -0.10152424675671
C            3.07816560039609        1.14402119815355       -0.13867374068217
C            4.45436918199944        1.14593651826208       -0.22464061513556
C            5.14607174110468       -0.04764704062444       -0.27445165437789
C            4.45861906495032       -1.24425925207128       -0.23837255842934
C            3.08229322335829       -1.24865988112229       -0.15250609216993
H           -0.53683167396907        2.42904608238571        0.22336822340380
H           -1.69322851324415        4.56249085573406        0.44090010747667
H           -4.15739947830548        4.63607420261524        0.55010555233701
H           -5.45524418942727        2.58307744770357        0.42951826316412
H           -6.16278891685657        1.26682177192126       -1.62710674420636
H           -8.61730283685519        1.35199970093109       -1.59136150622305
H           -9.86017073727458        0.24691362190891        0.21916907946474
H           -8.64609856826753       -0.93281189629058        2.00176040883012
H           -6.19073867795033       -0.99781797993025        1.98198219226020
H           -5.61446623493592       -2.35055758406593       -0.05637268819362
H           -5.69278404352706       -4.79308358261009       -0.25592148860350
H           -4.51683204507075       -6.92435814657455       -0.44118774067181
H           -2.05057745334213       -6.99535889145351       -0.46655589699522
H           -0.75014357189019       -4.93508580362477       -0.30835906988525
H           -0.68571692629655       -2.48247938224486       -0.11255537471397
H            2.53499105309175        2.07299488134138       -0.10077962012691
H            4.99027212870308        2.08066807231118       -0.25355068159307
H            6.22179793683896       -0.04520776002067       -0.34241802387088
H            4.99817830948221       -2.17648738074607       -0.27800784850564
H            2.54250068763659       -2.17997293058340       -0.12551231650376
