76
 energy: -15.790438113552 gnorm: 0.000619080554 xtb: 6.5.0 (97a52f5)
C            3.51319562777983       -6.38564423974246        3.80106154205322
C            3.25028633172243       -6.43728806599562        5.15332413628712
C            2.01030190141252       -6.04528764092627        5.65218293919617
C            1.06260858780405       -5.58330204700569        4.74356701589500
C            1.30874549090199       -5.51160893988777        3.37535467508530
C            2.55535996059837       -5.93355826083361        2.91854651606765
C            0.27629310384882       -4.97467349981443        2.45447350785857
C            0.60990159231206       -4.40901794478929        1.22454910850003
C           -0.35985650364186       -3.86303052894356        0.40898202910786
C           -1.67958625089529       -3.84545203620801        0.80673749266067
C           -2.05144465995161       -4.39063666458597        2.03161410239281
C           -1.06485472134620       -4.96712339210910        2.82453165187861
C           -3.44066089757034       -4.30752943497553        2.53945333477202
C           -4.54936234166046       -4.52308855785057        1.72794548103998
C           -5.82062362846310       -4.46369599908017        2.25761692888101
C           -6.02516146937997       -4.19658879293737        3.59692513740217
C           -4.92904421755435       -3.97836705980480        4.43405789525091
C           -3.65571218878120       -4.02163344160830        3.88116082491449
C           -5.12781829471770       -3.72545113580443        5.87218160416433
C           -4.08103000439392       -3.84739904780532        6.77639144881524
C           -4.23810392388844       -3.60584107384515        8.13591038485296
C           -5.49942461395440       -3.22259540274828        8.58341683164602
C           -6.54743342804516       -3.08811818737881        7.69776411264482
C           -6.38201465829951       -3.34891382588880        6.35224087572452
C           -7.53279502329614       -3.16179760462647        5.37305765337030
O           -8.81468830534556       -3.31591533629857        6.03478621213282
C           -9.06264476773500       -4.64512383350691        6.46476515243120
C           -8.96412143346178       -5.62217651190157        5.29449383334421
O           -7.68963355672567       -5.53685323034819        4.70164601918324
C           -7.43821706740670       -4.21453880785092        4.17473741369748
O           -8.39078470775913       -3.86417241198184        3.10792026043643
C           -9.27777690646301       -2.80370367942117        3.43163815420514
C           -8.51700496416954       -1.55112352946548        3.90252158235773
O           -7.41278277339993       -1.85361996212182        4.75589645087469
C           -3.07518690867393       -3.73590378034634        9.04620594354997
C           -2.98694113220605       -3.02759832220992       10.24316962305047
C           -1.86477867192686       -3.12479791783524       11.04053503365417
C           -0.79884974099876       -3.91148566413643       10.65723310347756
C           -0.84755331083819       -4.62612956039994        9.46426700393383
C           -1.99751309722538       -4.53953451517377        8.68912995308351
C            0.29732482845430       -5.43045658540528        8.97418791646481
C            0.97563827453196       -6.32668502056449        9.79420712619346
C            1.98852147557191       -7.10827909013036        9.28103300688310
C            2.33597480393736       -7.01847509199664        7.94879143872839
C            1.68673690377387       -6.12488907884044        7.09805829995847
C            0.67981084631201       -5.33302657165263        7.64071623661768
H            4.47556847399057       -6.69966165798391        3.43128055670372
H            4.01342980683786       -6.77392547393049        5.83258632074714
H            0.10622612628133       -5.26847722183961        5.11315515650423
H            2.77007231074380       -5.91275586178587        1.86476676316579
H            1.64024938345634       -4.37697018002474        0.91769198075477
H           -0.08135148172039       -3.42977742800493       -0.53770744063468
H           -2.42900784222091       -3.38768547995691        0.18446931697877
H           -1.35990985295979       -5.42076826692129        3.75227475166167
H           -4.40440610441017       -4.75244528039446        0.68660957195972
H           -6.67902318434480       -4.63944451163263        1.63248418904182
H           -2.80160974172812       -3.81259046789196        4.49702699017865
H           -3.11270057326774       -4.13006792893204        6.41284475174071
H           -5.65755415619378       -3.03670472295526        9.63100717741898
H           -7.51393000192749       -2.76751430922824        8.04659866018397
H          -10.05369330666027       -4.66876835048857        6.93597988463580
H           -8.32868280988969       -4.89920468803610        7.23682188529446
H           -9.70730813586822       -5.39451574602213        4.52228840177837
H           -9.12546205161128       -6.66155209254671        5.60966519164415
H           -9.96480677311942       -3.15870701237041        4.20643387371090
H           -9.88111503190190       -2.59513380516810        2.53935723335613
H           -9.17530062997236       -0.86937633097612        4.45489495580567
H           -8.11859432747764       -0.99583989775387        3.04547061941520
H           -3.79490524027593       -2.38052966967519       10.53594241513227
H           -1.81379395902842       -2.56905171454496       11.96249221350181
H            0.08671925558468       -3.96476422478816       11.26645647602230
H           -2.04523248877565       -5.12306460564586        7.78843813590212
H            0.68609776665395       -6.41664705331842       10.82685062661554
H            2.50297711090159       -7.80512832835307        9.92225848617150
H            3.10355131380962       -7.66121292410415        7.55549643803365
H            0.17661058633758       -4.61479343797823        7.02058742187861
