60
 energy: -13.069266789133 gnorm: 0.000850525303 xtb: 6.5.0 (97a52f5)
C            1.28581132679390       -4.50789488451024        5.43213298058301
C            1.08947550607583       -5.73299111805312        6.03159273342625
C            0.18585656307076       -6.64229508953136        5.49070951513503
C           -0.49529094989848       -6.28279958719272        4.33226843711016
C           -0.31197182159349       -5.05353109145797        3.70300356608545
C            0.59426188566876       -4.16806623332211        4.28763172878224
C           -1.04165346870819       -4.72339643677275        2.45028757706579
C           -0.75756353324430       -3.57638115990825        1.70779314223820
C           -1.41605768635804       -3.31062453022454        0.52466725924626
C           -2.36191362514550       -4.18634330600208        0.03755065982582
C           -2.67274340666346       -5.34541100934084        0.74171285576118
C           -2.01758747988723       -5.58020128502435        1.94627383258195
C           -3.62158792831811       -6.35281320864217        0.21012266206936
C           -4.77274366210615       -5.99719193123965       -0.48906368902403
C           -5.62797025921720       -6.96713804804233       -0.97162548141721
C           -5.35808266280512       -8.30469517648792       -0.76626133096244
C           -4.21777717138141       -8.69431064049921       -0.06887945060363
C           -3.36378898586782       -7.70492785106930        0.40361841142938
C           -3.88864940378153      -10.11729750519996        0.18431055071494
C           -3.98753970329150      -11.08453764787154       -0.81162395702143
C           -3.57947527699642      -12.37856237684786       -0.56740047168078
C           -3.05809544923451      -12.72860978265342        0.66142549686448
C           -2.95297649264402      -11.79080350175376        1.68848328227294
C           -3.39136923681006      -10.49616262844326        1.42632000501458
C           -2.34767759063478      -12.12892998559054        3.00083165155068
C           -2.24738355211350      -13.44409797214647        3.45157534544303
C           -1.65454832288208      -13.73133774243582        4.66343615943834
C           -1.16206993217347      -12.71959024024605        5.46020167682072
C           -1.25921103522974      -11.38996365891550        5.05709781320294
C           -1.84668199907449      -11.12457592888099        3.82418405161665
C           -0.79737640746092      -10.27275284097193        5.91652906887609
C           -0.80441433627382      -10.37283577026191        7.30669765522181
C           -0.44953730906687       -9.29713102253303        8.09339436161977
C           -0.10221909953909       -8.09434185006902        7.51613508344737
C           -0.08738192133212       -7.95187094393251        6.13054819616831
C           -0.41556542813668       -9.05843950540674        5.35296535887168
H            1.98558197542000       -3.80943540553440        5.86159574732906
H            1.63783926914106       -5.99629367816328        6.91946033651812
H           -1.19189040824855       -6.98998716571578        3.92664543501256
H            0.75946790721804       -3.20166587098842        3.84716003631183
H           -0.00440273730948       -2.88989349450841        2.04939239835486
H           -1.17790066761767       -2.41863956241125       -0.03171071480679
H           -2.84910630376070       -3.99222137449013       -0.90232157394533
H           -2.28909563933130       -6.46154797536486        2.49416210632327
H           -4.99470550102841       -4.95523346289907       -0.64205662735509
H           -6.51517896619686       -6.67735097266988       -1.51089591202651
H           -6.03135987725652       -9.05898697026500       -1.13558480493659
H           -2.46555865702324       -7.99863422204377        0.91583194170117
H           -4.36123638172934      -10.80470266780156       -1.78157025054874
H           -3.65000630479068      -13.11778481486609       -1.34873781443026
H           -2.70818953750227      -13.73307654215840        0.82126539794599
H           -3.34992640540011       -9.75280070000866        2.20021194167927
H           -2.64639347841089      -14.24338180924573        2.85249621054905
H           -1.57856793296808      -14.75502138860619        4.99237745014444
H           -0.69347984797578      -12.95546350108376        6.39971940256131
H           -1.91792128434684      -10.10335285645267        3.50319144461940
H           -1.11768396497730      -11.29275731115345        7.76855419787890
H           -0.46475360331048       -9.39076962588876        9.16712065890215
H            0.13418280727623       -7.24688785386510        8.13604206875274
H           -0.37134460361523       -8.96833728234659        4.28344418567944
