65
 energy: -12.150630492634 gnorm: 0.000546335478 xtb: 6.5.0 (97a52f5)
C            3.32764021354635       -4.74430759417977       -0.47943907138337
C            3.49208332237193       -3.76604142054372       -1.43938026940870
C            4.26513876605133       -2.64294200747768       -1.18202788884688
C            4.79451324320417       -2.48459553242107        0.08990750990923
C            4.63871356164933       -3.46728224290890        1.04659662163119
C            3.93777928652733       -4.62985549626078        0.76061277356568
C            3.92922223172046       -5.78191386897654        1.72479240954913
C            4.67645128524589       -7.02787908119247        1.21549375639893
C            6.18995665515225       -6.83169221170642        1.00685260820252
C            6.54552679707906       -5.88343243851776       -0.10992506077182
C            5.99482769433442       -6.10679102312830       -1.36412398942361
C            6.12303447131834       -5.20566686462957       -2.41061559813868
C            6.77440400643590       -3.99239358313568       -2.16760054609064
C            7.43653754434903       -3.82922298127596       -0.95939372673215
C            7.38242501580065       -4.77128541446240        0.05837657021160
C            8.25997500037107       -4.56723952001167        1.26631428452353
C            9.76516215975984       -4.50942644380969        0.94650007807913
C           10.36555551198582       -5.82747417075450        0.42476395453756
C            9.84010333277062       -6.24922751864795       -0.91118797872561
C            9.97143109791761       -5.45413866395016       -2.01122974589585
C            9.30321789945486       -5.73298362448503       -3.22930441964580
C            8.48198992557998       -6.81143984921611       -3.37730256574945
C            8.39936595296561       -7.75185621666894       -2.29419131633882
N            7.72332794291412       -8.88357414545092       -2.26764951145368
S            7.94170229129671       -9.56129512682122       -0.78331269798178
N            8.91441101122062       -8.40349384715830       -0.13081238743417
C            9.09168360496209       -7.46874394796587       -1.04382171744143
C            7.61384982267173       -6.97763237561933       -4.58464933971346
C            6.66577206354739       -5.79319360639066       -4.84225281439682
C            5.58591839729364       -5.57863664609661       -3.76602207266423
C            6.74775028583860       -2.84650695716780       -3.14325050622117
C            6.10547035380657       -1.56276066487995       -2.58503138692136
C            4.60028459242276       -1.66950904447509       -2.27694583827180
H            2.76662262950504       -5.63427998444843       -0.70865923545820
H            3.05917852125287       -3.89428186904293       -2.41676863233414
H            5.37807325643284       -1.60732588384285        0.31093657235438
H            5.10840376946040       -3.36014005212834        2.00945270455885
H            2.88663819732179       -6.03325987271420        1.95542022400763
H            4.36849566796446       -5.45953730034098        2.67551359705609
H            4.51302746586333       -7.85719118123026        1.91686284720314
H            4.22112729502683       -7.35987136967981        0.27644335381167
H            6.67115583143666       -7.79430194463989        0.79982375778130
H            6.61886483731461       -6.49040783134070        1.95140108669023
H            5.44801591225209       -7.01710581774774       -1.53317775379356
H            8.01019677321234       -2.93293761284727       -0.80326854916796
H            8.09772999411608       -5.35993166679132        1.99967237254498
H            7.94381706901143       -3.64289975440368        1.76511728462965
H           10.31320869195224       -4.19479682178224        1.84497788897623
H            9.94736436532185       -3.71701582764751        0.21238189897807
H           10.16938439168922       -6.62542995656862        1.14898321801860
H           11.45770627596825       -5.74981524336031        0.36006015563375
H           10.54552612588015       -4.54745321433867       -1.92860928256187
H            9.39125350191882       -5.03322224393410       -4.04218242216405
H            8.25845594238283       -7.14662037789492       -5.45585000586151
H            7.02447864940201       -7.89398746017886       -4.47190533386473
H            6.17984661295805       -5.92529060663555       -5.81842552719315
H            7.26164841303198       -4.88029295817215       -4.94420689835684
H            4.99287233922975       -6.49547049593384       -3.67279113878337
H            4.86888176831336       -4.81323765229763       -4.08549762987494
H            6.21290795603703       -3.13909509786340       -4.05123321548178
H            7.77734149154511       -2.64541882186835       -3.46380363021944
H            6.27047204081808       -0.73939972620754       -3.29313136782928
H            6.63666889547607       -1.26281819692029       -1.67493927912527
H            4.06476270102528       -1.95502238586895       -3.18931101552363
H            4.20026727530946       -0.68658664095231       -1.99935616161089
