32
 energy: -7.366429176054 gnorm: 0.000979980908 xtb: 6.5.0 (97a52f5)
C           -2.69896650365322        2.14533155449882       -0.06531990155792
C           -2.96684840524341        0.79200323899666       -0.11508604027278
C           -1.91830664462823       -0.13739033590253       -0.08803923606368
C           -2.05126700158998       -1.57687603012790       -0.12594573667625
C           -0.98126494560623       -2.43691935921448       -0.08736178095687
C            0.34084618212776       -1.91544920601190       -0.01104144370231
N            1.67151922989036       -2.37402145698780        0.06424791232820
C            2.55212616878801       -1.27579687373274        0.13449835520019
C            3.94635757839262       -1.01129985141619        0.24392827144874
C            4.39026685038853        0.28674440532490        0.30827040787518
C            3.50885465895229        1.43279030612708        0.27652972016446
C            3.89649057181156        2.77773222202852        0.34608542976583
C            2.94630263735333        3.77862598629346        0.31441296090826
C            1.58134152996878        3.50910662559463        0.21630055888089
C            1.11877880756069        2.20319268923302        0.14187658987170
C           -0.30875530016003        1.79017455445890        0.04594582037277
C           -1.39986113365837        2.64657271844556        0.01512467270852
C           -0.62259082474102        0.40175737951290       -0.01223692523557
C            0.42000013595318       -0.52652996320294        0.01364297630803
C            1.74424258723924       -0.14342759212649        0.10020048179382
C            2.12727442116788        1.19737204271170        0.17111316409702
H           -3.52249112453242        2.84021727808172       -0.08746878726328
H           -3.98085828022613        0.43665340695260       -0.17411853403006
H           -3.04706283893490       -1.97979646420649       -0.18354106618146
H           -1.12233144229423       -3.50248233342300       -0.11261687933667
H            1.95418110332121       -3.35171517465516        0.06914122307446
H            4.63408502758049       -1.83709756443471        0.27693685782405
H            5.44574912572128        0.47731804509425        0.39171253136222
H            4.94235436417112        3.01831865054737        0.42515538487333
H            3.26957604054275        4.80529067105147        0.36917189919937
H            0.87616982703838        4.32082068273973        0.19885587459825
H           -1.23852240270126        3.70902974774901        0.05553523862150
