41
 energy: -8.301814735793 gnorm: 0.000897837687 xtb: 6.5.0 (97a52f5)
C            4.76782957316048       -0.02343365594278       -0.00181871730263
C            4.31817805421823        1.27265070942338       -0.00251439226319
C            2.95013193311577        1.54619106915720       -0.00275318980696
C            2.45045481209187        2.88336605772685       -0.00337589193989
C            1.12486990716320        3.13425164602656       -0.00346580073121
C            0.16949739324325        2.07979348581069       -0.00286990951585
O           -1.15600036455381        2.39117750861567       -0.00295481408155
C           -2.05332997901529        1.36711175576783       -0.00129792513054
C           -3.44373990682001        1.66949507466365       -0.00016225343316
C           -4.37620382788407        0.69449303887856        0.00237385324278
C           -4.00517407198871       -0.68393811935510        0.00374004235558
C           -4.95911105234664       -1.70198816087059        0.00669990047334
C           -4.57121184848341       -3.01786812643535        0.00779529818224
C           -3.23247168053462       -3.35885192946896        0.00595866257556
C           -2.23627717609796       -2.38774521824923        0.00307885122521
C           -0.81165942615568       -2.71450107828470        0.00145489157056
C           -0.35243335625227       -4.02882701474083        0.00157152902676
C            0.99345218539389       -4.31212494117764        0.00048568623469
C            1.92356490632654       -3.29895482293113       -0.00058467101324
C            1.53284423620868       -1.96270982447002       -0.00079680919986
C            2.50186017143888       -0.86851892242327       -0.00154951484954
C            3.87699945090559       -1.07933563201994       -0.00135606381689
C            2.03465738504970        0.46920900350877       -0.00222459516208
C            0.63532205559722        0.74523078745773       -0.00211950838876
C           -0.29146928062529       -0.30510498180430       -0.00090104196145
C            0.14604290274031       -1.66949536957734       -0.00008174721167
C           -1.65622087867902        0.01049685571472       -0.00023537413822
C           -2.63412960930590       -1.02777789714619        0.00209091155742
H            5.82757768336081       -0.22017393240875       -0.00157522260745
H            5.01848256885188        2.09004175869451       -0.00281094736149
H            3.15470818508799        3.69719146033969       -0.00374793059186
H            0.75613074628363        4.14473428293448       -0.00395184971362
H           -3.73143473220805        2.70600768351870       -0.00126319784089
H           -5.42236705003577        0.94708807910553        0.00339192065457
H           -6.00418092992018       -1.44434253963246        0.00819684741807
H           -5.31898799368559       -3.79413435447157        0.01017229679859
H           -2.96682835200378       -4.39975387926104        0.00702603521252
H           -1.05254617666788       -4.84370698144383        0.00240970988026
H            1.32269236994895       -5.33856953183336        0.00054664926085
H            2.96696988275622       -3.55475547747553       -0.00135382272548
H            4.26622129032083       -2.08062786592058       -0.00069789488154
