31
 energy: -6.990301094158 gnorm: 0.000427039136 xtb: 6.5.0 (97a52f5)
C            2.64837214421684       -2.24345340516095        0.09558203838754
C            2.97501645580969       -0.91542722088167        0.12006493199803
C            1.96451845734104        0.06730833433569        0.10171816781012
C            2.22638581881464        1.46279425961784        0.12453079861710
C            1.21055798317525        2.38779206669538        0.10469236149298
C           -0.11617795094585        1.96364367511323        0.06123703689304
Se          -1.77250926717200        2.93645376397811        0.02208113793101
C           -2.70405321020287        1.25682339149058       -0.02505487246739
C           -4.06206529269270        0.94772469824210       -0.07245380702399
C           -4.46640504985171       -0.36516895872763       -0.10041926254252
C           -3.53137939836423       -1.43378110840330       -0.08300634421480
C           -3.90171449494774       -2.79365932141536       -0.11137140762701
C           -2.94518443599317       -3.77123334541545       -0.09316666738107
C           -1.58479126202747       -3.45783436095257       -0.04659525216346
C           -1.15000561760551       -2.14585946339373       -0.01680623208108
C            0.27584227550823       -1.75641058211490        0.03135426471251
C            1.31746934678025       -2.66513328684968        0.05166069018624
C            0.62348219468526       -0.37182311477659        0.05787887018757
C           -0.38759700363851        0.61389997889120        0.03916947085390
C           -1.78407135729586        0.23247677013653       -0.00769114199143
C           -2.15342726217526       -1.13027328591647       -0.03559838278676
H            3.43314981913496       -2.98197405688774        0.11025595708845
H            4.00518297713100       -0.60603652913811        0.15349325632636
H            3.25007895155342        1.79222180807828        0.15784148628402
H            1.42181342427366        3.44267566291309        0.12184851693994
H           -4.78021273759667        1.74883675180751       -0.08683026366147
H           -5.51531690138783       -0.60183438990883       -0.13703310180498
H           -4.94604056284335       -3.05079752068138       -0.14781754700218
H           -3.24535292890869       -4.80608321536284       -0.11543355317434
H           -0.86591595393745       -4.25671165355942       -0.03407237632513
H            1.10467083916262       -3.71847634175290        0.03345122653883
