34
 energy: -7.734867517904 gnorm: 0.000216666326 xtb: 6.5.0 (97a52f5)
C            4.74899010922514       -0.09129554499448       -0.00043638345282
C            4.33122653282459        1.23144616105352       -0.00090344240564
C            2.97826898615687        1.55294864185520       -0.00094193485662
C            2.51200185771788        2.91015452534599       -0.00146517716140
C            1.19374752676412        3.20030362218090       -0.00141210483695
C            0.20189764171367        2.16328159964501       -0.00083938735954
C           -1.15267902361945        2.43912085340285       -0.00077645161006
C           -2.11710864115496        1.40878554155552       -0.00037969944424
C           -3.49886920296412        1.67315734325166       -0.00047242808269
C           -4.41027116097307        0.64674761368807       -0.00005173942598
C           -3.99249484341671       -0.67599023419330        0.00044204784956
C           -2.63953405101439       -0.99747465150215        0.00047663525043
C           -2.17326684679156       -2.35468011610957        0.00072127831011
C           -0.85501271946243       -2.64482891893811        0.00064875260816
C            0.13682527511443       -1.60779336933687        0.00034053110161
C            1.49139752164057       -1.88364085475221        0.00032282181527
C            2.45582385383127       -0.85330396893380       -0.00004688557472
C            3.83757991668220       -1.11769715430403       -0.00002582237123
C            2.02466777681769        0.50089816963768       -0.00046578132703
C            0.63985009191122        0.80192940735250       -0.00041765903229
C           -0.30112431020373       -0.24644242315880        0.00000111752860
C           -1.68594400425980        0.05458446770462        0.00004930457557
H            5.80336556347221       -0.31466517867171       -0.00040956992201
H            5.05744300515165        2.02583892643278       -0.00125883696321
H            3.24076819626939        3.70204694881516       -0.00194559493464
H            0.86439620834475        4.22486875067421       -0.00182190214468
H           -1.48172759754700        3.46225276758637       -0.00109680691536
H           -3.83406894551822        2.69592925561863       -0.00093786111796
H           -5.46465313474811        0.87008587682170       -0.00011846149237
H           -4.71869262181633       -1.47040094262634        0.00074033683445
H           -2.90201429122613       -3.14658944566429        0.00088350368816
H           -0.52566597743764       -3.66939587540326        0.00079456286134
H            1.82043731890985       -2.90677549509411        0.00058918711569
H            4.17275998960615       -2.14047629893934        0.00031385089247
