84
 energy: -18.984410965320 gnorm: 0.000393380229 xtb: 6.5.0 (97a52f5)
C           -3.89322014038467        2.40947937705876       -1.45998568439137
C           -3.93398643038405        1.17424214044925       -0.84841646548856
C           -2.77361712893207        0.59308000401942       -0.33316881989043
C           -2.78280479929819       -0.68463867127904        0.30353608278757
C           -1.64588877811025       -1.22682899687038        0.79555917709443
C           -0.39722380656527       -0.54456120380665        0.69727810831039
C            0.78524432614370       -1.09293278536799        1.20034033370058
C            1.97423529280539       -0.41971935280955        1.09494385832834
C            2.06931151815679        0.83812367444877        0.48528536700472
C            3.35797828257028        1.50083463544548        0.40563459051001
C            4.56305504370034        1.03182159387983        0.87346944962537
C            5.65677036885467        1.89750030985778        0.65451251185320
C            5.33046883704850        3.06003418253146        0.01152253295132
C            6.26254950537742        4.10420658302920       -0.33138023483586
N            5.94461306616800        5.24496943751900       -0.96027531450197
N            7.02625162569140        5.94420728280988       -1.10787028326132
C            8.04570283484533        5.25754369962940       -0.57629142293256
C            9.42853342759762        5.70616234378900       -0.55017482321436
C            9.80182392136684        6.92427316936806       -1.11473673027575
C           11.11254729145050        7.33148623698583       -1.09128718543298
C           12.09142581851592        6.53413940416060       -0.50321800632928
C           13.47933475016415        6.96745662516559       -0.49233368275487
N           14.49189577144273        6.26627597501802        0.03346799418883
N           15.58560268154311        6.94040026251333       -0.13753385570178
C           15.28249452982840        8.08108874503259       -0.77356894293043
C           16.23512208944083        9.09602401647363       -1.14657940130620
C           15.92551454533434       10.27501373215567       -1.76730113423220
C           17.04124915407554       11.09984444666659       -2.02887648676915
C           18.24723164959395       10.58095280934501       -1.61926138584286
C           19.55596907753267       11.19327407231432       -1.75689224710071
C           19.66978944344579       12.45223462554086       -2.36099885324238
C           20.87810401989388       13.07680800521804       -2.52760940725319
C           22.06280514793794       12.47449172042261       -2.09694857908309
C           23.33177903038978       13.10365990385099       -2.26454387506225
C           24.47137919935546       12.50806627025174       -1.84606154507241
C           24.44443113914108       11.22575444599877       -1.21927528113952
C           25.60735640773735       10.58922514141215       -0.78099071118385
C           25.54966459741209        9.35021051543367       -0.17847213214770
C           24.34114327563185        8.71273843475778        0.00469755913793
C           23.14944857589207        9.30688846363402       -0.41669740064445
C           21.88189570861834        8.67791330853635       -0.24597452650123
C           20.74549531332998        9.27450305568363       -0.66790194811152
C           20.74363916902427       10.55444309691789       -1.30183034793964
C           21.99368047146844       11.20323104447967       -1.47901983546488
C           23.19745139840875       10.57779094953392       -1.03702268805497
S           17.95471917297829        9.02054423473089       -0.88763932942914
O           13.94318496711234        8.13504741911667       -1.01572748652126
C           11.71750011745906        5.31720656625596        0.06306997353108
C           10.40710803885491        4.91021475299766        0.03979376935729
O            7.59821005025397        4.07728417206062       -0.06770580092084
S            3.62225321779290        3.06763645319784       -0.32379463853124
C            0.88315938655030        1.42457131035446       -0.03868968785442
C            0.86364874688132        2.69982766284357       -0.68181148233577
C           -0.26977813032042        3.24369431725089       -1.17611906900161
C           -1.51643803105491        2.56056161632224       -1.07619812612496
C           -2.70470378773624        3.09819748443473       -1.57577331199313
C           -1.54711945103020        1.29362678850140       -0.44659566233512
C           -0.34638322628044        0.72426113917339        0.07254858774278
H           -4.79983162508240        2.84051525821631       -1.85176131870047
H           -4.86661095282760        0.64407754645589       -0.76299644652455
H           -3.71620883670478       -1.21381836271155        0.38542363641045
H           -1.66908563660152       -2.19129094317094        1.27242785766792
H            0.75102504400876       -2.05828382866170        1.67534833652146
H            2.86252625034508       -0.87414847779105        1.49485899308293
H            4.67805366803447        0.07961715015867        1.36582885647403
H            6.66721145941587        1.67199922390955        0.95977330105263
H            9.04678100758556        7.53917009964342       -1.57226029042124
H           11.40360762453732        8.27079994992854       -1.52914273875675
H           14.91252746529521       10.53950879531032       -2.02984576007814
H           16.94180120510440       12.05753270749344       -2.51394892708851
H           18.78062223574901       12.94720246313562       -2.70729231859285
H           20.92637952706549       14.04428026155705       -2.99702099718663
H           23.36845217330847       14.07061635129512       -2.73548706789948
H           25.42044695584935       12.99696377948569       -1.98122305968342
H           26.55559247282405       11.07884323944297       -0.92006986442171
H           26.45881767997823        8.87541430204972        0.15218938746141
H           24.30554658716094        7.74584344142451        0.47587408708667
H           21.84514697307431        7.71222522371415        0.22745183744648
H           19.80284444887181        8.76441956589660       -0.52104000379454
H           12.47307031028854        4.70029998452082        0.51696872467074
H           10.11693742350702        3.96927655975262        0.47476304570054
H            1.79027663803660        3.25072576918890       -0.77742959523059
H           -0.24660869798378        4.20704759514361       -1.65512102383028
H           -2.68235969559965        4.06162569611566       -2.05481471425685
