94
 energy: -19.074996760926 gnorm: 0.000504469233 xtb: 6.5.0 (97a52f5)
C           -0.96105401774370        0.34279115014237       -4.67930231642942
C           -0.85405356583184        1.36338727516482       -3.77748029310908
C            0.01507683065224        1.27012692045051       -2.67705611858484
C            0.14700215635355        2.33477641133139       -1.73562443871932
C            0.97376326089655        2.23034095430113       -0.67249087017724
C            1.72556955849126        1.04060068303011       -0.43405237485637
C            2.55343133240981        0.90475366424214        0.69209040780276
C            3.22350393476340       -0.26000422667089        0.93886183205964
C            3.10389391018527       -1.37051816042105        0.08297540814916
C            2.30553945313994       -1.22503473290192       -1.03748722417748
C            1.61901752248529       -0.04028626260955       -1.33149478884521
C            0.77235928464706        0.09332696135580       -2.50410351379586
C            0.67118604901259       -0.91394386441853       -3.47133652367713
C           -0.18560021116966       -0.82244907051366       -4.55209844206738
C           -0.28532055174380       -1.93708505964700       -5.52183714423913
C           -0.79915094697513       -1.75682124750464       -6.80319366651384
C           -0.92467418107755       -2.82323844937676       -7.66557061330047
C           -0.52670096340430       -4.09286827380997       -7.29834469544739
C            0.06623208962886       -4.29052731296299       -6.05208724496960
C            0.13829052814550       -3.21554836552627       -5.17365444373603
C            0.60393980557851       -5.60771682370741       -5.67950261430944
C            1.54442345705367       -5.72849634450114       -4.66104900828161
C            2.05171752655713       -6.95817694053889       -4.25905869846622
C            1.58368546182795       -8.09406700996307       -4.91193028917107
C            0.68480533497465       -7.98597818179457       -5.94951556900989
C            0.20455264904302       -6.75888539637261       -6.35948287091413
C           -0.73198509095479       -6.71503566810923       -7.56058706547624
O           -0.23671530747530       -7.67451325383157       -8.54792775650415
C           -0.74276764844777       -7.39531007519620       -9.83248007077508
C           -0.11326698835589       -6.08585014750768      -10.35703290674546
O            0.24320651785314       -5.22576964796916       -9.28774070738577
C           -0.77593370901997       -5.24667244268034       -8.26182130836169
O           -2.09442903771396       -5.09903584418227       -8.85179994896692
C           -3.14519757737452       -5.08324968960124       -7.88289068479477
C           -2.85340382277800       -6.02166273555445       -6.69718574624784
O           -2.07041283214867       -7.11526311079764       -7.13331440045512
C            3.07303444246004       -7.04157046981726       -3.18846629238350
C            3.98574460445525       -8.08982231725716       -3.13890428840478
C            4.92649278188983       -8.15205876444055       -2.13646861638756
C            5.00752203288703       -7.17261894130297       -1.16793196497608
C            4.14744905715879       -6.07527893771439       -1.22443114093550
C            3.17111499624825       -6.05162279485744       -2.21699253924502
C            4.28928396343576       -4.96626089805200       -0.26567283654840
C            3.69899668782950       -3.73114185568960       -0.51446998701345
C            3.77775184093775       -2.66097318284152        0.37355520254639
C            4.49979408096373       -2.86690781443802        1.54661482565004
C            5.12021757651861       -4.07093132072429        1.79227312784140
C            5.03864038624744       -5.11992073108625        0.90077855308768
C            5.77827561728358       -6.40657986049264        1.24214959111288
O            7.07480519792436       -6.04300703648909        1.81297689395771
C            7.97363767029318       -7.12631945408297        1.76176416665654
C            8.37013870406104       -7.39131965758247        0.29245585289603
O            7.34326788177110       -6.98067654143969       -0.59424349278224
C            6.04486365680123       -7.33732912824052       -0.06481107358943
O            6.04408919849062       -8.71686656680853        0.38867301892917
C            4.77692483810711       -9.13951082319703        0.89613931881967
C            4.05521772472706       -8.01185781621077        1.65758889953730
O            5.00651540125767       -7.14288532246367        2.23997660020275
H           -1.65725263803239        0.42700352621210       -5.49466770624892
H           -1.44691614933787        2.25370817038056       -3.89702204134547
H           -0.42570395878489        3.23272389111969       -1.89017424904848
H            1.06164278140502        3.04401688246019        0.02634338512346
H            2.64534739594775        1.73481943269932        1.37116218662380
H            3.84812299321453       -0.32400090738498        1.81085464630972
H            2.17450027948446       -2.05959708509506       -1.69421514307309
H            1.30170104849541       -1.77640633316839       -3.38817233684184
H           -1.10275618896730       -0.77630462243806       -7.12378532910202
H           -1.34883233819908       -2.68251482204555       -8.64517865474775
H            0.49770027754819       -3.39139873197623       -4.17830844291126
H            1.92630278289265       -4.83851094117201       -4.19820814493752
H            1.93156401785846       -9.06478436210621       -4.60531772969885
H            0.35198998135267       -8.86592077090022       -6.47335010662783
H           -1.83180805350301       -7.30566000936007       -9.73975171953710
H           -0.52951623474690       -8.25245986730743      -10.48305709883712
H           -0.80252333274678       -5.53532545445603      -11.00913984687614
H            0.79956454379371       -6.28776087282114      -10.93017310398969
H           -3.29317088987648       -4.04776995512812       -7.55554237586204
H           -4.05880661873796       -5.39042047671436       -8.40473964565323
H           -3.77401928011291       -6.42307325421544       -6.25593653779669
H           -2.30770372869365       -5.50866025446055       -5.89801801842719
H            3.96181224630953       -8.85323606651992       -3.89644933961723
H            5.62003691689156       -8.97454937417067       -2.09338551939536
H            2.44824613104263       -5.25858869456772       -2.22115870950620
H            3.18835761092707       -3.59912505136654       -1.44646591684836
H            4.58193894479097       -2.08159384579455        2.27524033470548
H            5.69263234702425       -4.21244854126615        2.69335228419414
H            7.46317439785534       -7.99277963603898        2.19931488518192
H            8.83868344487357       -6.89094519179623        2.39397881921225
H            8.56307590407925       -8.45527882528847        0.10761640230768
H            9.27543872763383       -6.83532258421805        0.02075950234255
H            4.17875002861288       -9.51142696749621        0.05634365867578
H            4.97072596049635       -9.99212300197626        1.55714388306781
H            3.41927164987382       -8.40127898052043        2.46213819328654
H            3.41437044611318       -7.42028186722130        0.99491242742999
