47
 energy: -10.434922588079 gnorm: 0.000701951594 xtb: 6.5.0 (97a52f5)
C           -3.47341450878172       -0.02480182213446        0.03630415725433
C           -2.78808774822355       -1.22148151212559       -0.00524810731728
C           -1.39269363355998       -1.24499086013506       -0.02668861738397
C           -0.64934981967658       -2.46676677680010       -0.06621398353566
C            0.70111804058562       -2.46324839482335       -0.08120450384996
C            1.44077199044423       -1.23843102523677       -0.06125034867933
C            2.83581590502151       -1.21406805392104       -0.06687882357620
C            3.51776300172399       -0.01735189501859       -0.04042945148187
C            2.83516001273937        1.18108142403405       -0.01381170795543
C            1.44178640139393        1.21708692719506       -0.01514258702542
C            0.69839335472075        2.46162560852909        0.01912344377692
C            1.39996323557025        3.76601676021011        0.01304619799928
C            1.25383465803401        4.67458557987085        1.04635275445368
C            1.92326594724772        5.88766557010116        1.01463456921014
C            1.75924412124803        6.80523914964801        2.12754597893193
N            1.01526116018854        6.56325392972052        3.17462914946878
C            1.05622686142976        7.59944719838426        4.06302588116500
C            1.82546672800342        8.65679950696205        3.71722129313181
S            2.55959296814965        8.36807245617921        2.19133436114926
N            2.72267451688280        6.24758933676752        0.00134949427208
C            2.86146985225285        5.37824708521146       -1.00870936325067
C            3.71080690336135        5.74408911908363       -2.12772758896450
N            3.92893990111423        4.97709598960800       -3.16347275796433
C            4.76263027595297        5.57995460264035       -4.06137642074667
C            5.20322597170336        6.81623942345624       -3.73511456218763
S            4.55187407425902        7.28410352592016       -2.21623750972450
C            2.22619259375209        4.14705933124679       -1.02964480141411
C           -0.66674087370227        2.42803081094315        0.05586990926715
C           -1.39884237038516        1.20666824794815        0.03877470433383
C           -2.79503593942474        1.17519142013954        0.05912533068317
C           -0.68905001992303       -0.01720329996726       -0.00724967125821
C            0.73545213667643       -0.01074595198402       -0.03032446970774
H           -4.55092419886286       -0.02825310401253        0.05085251321865
H           -3.32722314547562       -2.15269839308889       -0.02183845026559
H           -1.18948382313016       -3.39734185039335       -0.08154245333219
H            1.24487252964058       -3.39145309304606       -0.10795502809840
H            3.37606355355926       -2.14456261552574       -0.08778611267355
H            4.59543397582770       -0.01755577920136       -0.03959670595718
H            3.38248294048356        2.10631752280792        0.01516719121424
H            0.62601605294054        4.43665928524881        1.88467219316636
H            0.49424144661078        7.55235386046361        4.98739636434741
H            1.96573314639148        9.54827299571432        4.29822267171919
H            5.03818083116618        5.07496280000510       -4.97873634379825
H            5.86074037741943        7.42500205700199       -4.32570507460028
H            2.37240645787654        3.48918930521706       -1.86610621759325
H           -1.21019232021903        3.35490515696790        0.08140510992720
H           -3.33875352300428        2.10338844018496        0.09100839365061
