26
 energy: -5.747026319308 gnorm: 0.000187260812 xtb: 6.5.0 (97a52f5)
C           -3.49303152526339       -0.03909234838413        0.00245610616175
C           -2.79873370368541       -1.23167861637540        0.00022506152892
C           -1.40321960264117       -1.24514211000456       -0.00147455651937
C           -0.64754896003062       -2.46171597079232       -0.00307927219535
C            0.70347876359782       -2.44778452980215       -0.00345869195283
C            1.43389390188305       -1.21587883273606       -0.00235766365529
C            2.82883344058452       -1.17363908648934       -0.00235462991764
C            3.49839555081833        0.03300962034810       -0.00144474185020
C            2.80411182135555        1.22560857863690       -0.00068079424838
C            1.40858698331106        1.23908712717614       -0.00073577155953
C            0.65290758460613        2.45566222944604       -0.00096800850262
C           -0.69811528749694        2.44172434637290       -0.00021516318573
C           -1.42853139780838        1.20981584380625        0.00075083992865
C           -2.82348234990032        1.16756786808423        0.00279848028269
C           -0.71016312515356       -0.01038666820003       -0.00067554527966
C            0.71553332461448        0.00432794400892       -0.00124108538166
H           -4.57076286837365       -0.05023747028262        0.00411250956210
H           -3.33071160174072       -2.16738025832369       -0.00003211284489
H           -1.18012822106606       -3.39692851241171       -0.00382210329289
H            1.25523739236510       -3.37181640667706       -0.00457585991804
H            3.37996855465749       -2.09818849727494       -0.00303884383794
H            4.57612964071865        0.04408625201077       -0.00133434194796
H            3.33612496398402        2.16128867311682       -0.00027283921711
H            1.18552186860025        3.39085545507107       -0.00226292049963
H           -1.24990816589286        3.36573329194006       -0.00040059480341
H           -3.37463698204337        2.09210207773579        0.00518254314603
