31
 energy: -7.039577441304 gnorm: 0.000986632697 xtb: 6.5.0 (97a52f5)
C            2.71718627623276       -2.15434852343274       -0.39624289256667
C            3.00169973752729       -0.81128677943363       -0.37403756484426
C            1.96963828719758        0.13037424798552       -0.22945243239583
C            2.17343175007668        1.54686819525064       -0.19166743785189
C            1.13618401687490        2.42833599066743       -0.04794170150850
C           -0.18326676057665        1.95069431283406        0.06575562700142
S           -1.75939913033543        2.73255867447940        0.25876295008870
C           -2.64825192320270        1.20223629563592        0.28789246588644
C           -4.00889248792536        0.86530947373328        0.41922055156142
C           -4.39324975245810       -0.44835604687087        0.40918346711919
C           -3.45067935433072       -1.51675419030744        0.26955944621652
C           -3.79772327359257       -2.87767007387346        0.25554503929491
C           -2.82728432170286       -3.83960256423761        0.12089588736630
C           -1.48032740178478       -3.50553604296453       -0.00540813437053
C           -1.06594791975505       -2.18364146196656       -0.00213548269941
C            0.34438570966615       -1.75512069109058       -0.13268863930135
C            1.41153927478093       -2.62653817253642       -0.27720980485858
C            0.65478230002908       -0.36466076459755       -0.11319634948872
C           -0.38234329493381        0.58358632181789        0.02814984962230
C           -1.73704832206217        0.17228982097334        0.14972841167256
C           -2.08405342689156       -1.19675604880437        0.13775428702453
H            3.52247503144834       -2.86196580021966       -0.50815333356979
H            4.01691429589367       -0.46641710004206       -0.46662905320148
H            3.17988605869157        1.91730799525052       -0.27898161002202
H            1.31125606576974        3.48957344946606       -0.02115907255173
H           -4.73364054155467        1.65318833467975        0.52691184679024
H           -5.43451134137621       -0.70020902595642        0.50992858621896
H           -4.83291750731699       -3.15576118119250        0.35118386012671
H           -3.11293882397659       -4.87887221335425        0.11213346325450
H           -0.75206220758534       -4.28984960593330       -0.10729864569976
H            1.23240898717254       -3.68646682595984       -0.29789358431420
