32
 energy: -7.134236470065 gnorm: 0.000158412254 xtb: 6.5.0 (97a52f5)
C           -2.88444319173540        2.37959220487186       -0.03946017021353
C           -3.55691882955399        1.19418340241575       -0.01544590092126
C           -2.85235270844174       -0.02682257486563        0.01379575254417
C           -3.53324074322008       -1.26118852333902        0.04316755934472
C           -2.83802907191793       -2.43340275645966        0.06740908130953
C           -1.44602477070405       -2.42927266247288        0.05661651816865
C           -0.72156619674600       -1.24995952239668        0.02519066096160
C            0.74372828399197       -1.23585252134436        0.00189115797047
C            1.49076007287544       -2.40101012408144       -0.02897307177558
C            2.88257215548739       -2.37831106381425       -0.04130485939470
C            3.55507685963165       -1.19288316442875       -0.01915675847864
C            2.85054855238654        0.02814822968057        0.00992490669200
C            3.53147428059187        1.26253674742000        0.03737843678721
C            2.83629461483861        2.43476988270407        0.06163178126606
C            1.44427672222531        2.43063049888689        0.05273977646021
C            0.71977858722056        1.25129413488094        0.02318940038678
C           -0.74554594825326        1.23716915865062        0.00191058864427
C           -1.49261652831005        2.40230264800339       -0.02889403073717
C           -1.43353794559437       -0.01314262407281        0.01367045650879
C            1.43173486248634        0.01446824366919        0.01170780547484
H           -3.43280930051999        3.30726025991335       -0.06603761415850
H           -4.63326441296531        1.17775971117759       -0.02089815193800
H           -4.60970531430946       -1.26549895151276        0.04833538289135
H           -3.36839413794938       -3.37147543988639        0.09397392288261
H           -0.93313830933518       -3.37311487472727        0.07779747293714
H            0.99614815905436       -3.35458977566386       -0.04865993051407
H            3.43090693138422       -3.30600749507041       -0.06746953014205
H            4.63141528176474       -1.17646900484164       -0.02589444854791
H            4.60794481365334        1.26685001251592        0.04108418158426
H            3.36669529684943        3.37286271269180        0.08673649668503
H            0.93141681097103        3.37448722591879        0.07392926266985
H           -0.99802487585684        3.35585600557692       -0.05030613534769
