12
 energy: -2.313658746887 gnorm: 0.000694220656 xtb: 6.5.0 (97a52f5)
C           -2.02114012615068       -1.13335129829121        0.00485737662923
C           -0.77361595596411       -1.64865832246025        0.00587820912718
C            0.24311691317827       -0.64229691832550        0.00513614879800
S            2.00201579445691       -0.60983797408070        0.00199164248681
C            2.01514312317761        1.13111142811769        0.00146852288388
C            0.76762118113423        1.64642243328764        0.00408433815364
C           -0.24911012825383        0.64006536131484        0.00521387327664
S           -2.00801152092727        0.60759911519567        0.00455584967549
H           -2.92607950544130       -1.71054922242869        0.00199495671581
H           -0.55051783169827       -2.70367399767435        0.00613056022873
H            2.92007577959079        1.70829732387363       -0.00024718012165
H            0.54453227689764        2.70144207147122        0.00421570214624
