33
 energy: -5.988821878824 gnorm: 0.000201954722 xtb: 6.5.0 (97a52f5)
C            0.95805712728980        0.40435011678225       -2.54804139436371
C            0.22842117669609        1.44187525890348       -2.00580514121548
C           -0.66185815939802        1.20105151808837       -0.98605176320976
C           -0.84083282952692       -0.09021895015078       -0.48586863932050
C           -1.80084633841305       -0.35631788838079        0.62165886060386
C           -3.04666136681411       -0.95934856565584        0.30730039581697
C           -3.38989229270891       -1.28365203243054       -1.03363214558739
C           -4.58219247993267       -1.86221340128098       -1.34095783662819
C           -5.51465734327638       -2.15570359860850       -0.33508829781191
C           -5.23037117751433       -1.85635413971359        0.96231457870446
C           -4.00941216858346       -1.26084289007188        1.28354154155476
S           -3.72764590102012       -0.91694581192005        2.86159784242318
C           -2.25475213326622       -0.22279318500186        3.05286136158594
C           -1.87162400799848        0.12870283106285        4.34829431264497
C           -0.65533820267592        0.70278523574453        4.55998007970176
C            0.20593836690991        0.93569170266600        3.47773184706276
C           -0.16247674120856        0.59607773760744        2.21296477513556
C           -1.42427261050671       -0.00061349339278        1.94304506148984
C           -0.09295554047356       -1.12657064816375       -1.04826389365304
C            0.79555088512309       -0.87847753942426       -2.06770982816207
H            1.65590754932482        0.59614996925400       -3.34713072565444
H            0.35621232691040        2.44348247661500       -2.38319932235583
H           -1.23650111825600        2.00763312268396       -0.56398565436441
H           -2.68881348007226       -1.05860340947569       -1.81774315992497
H           -4.81740456625260       -2.09745222652837       -2.36613898945597
H           -6.45552276663070       -2.61503286655154       -0.59184363788672
H           -5.92674174501896       -2.06543227099656        1.75939669146063
H           -2.55632876603667       -0.06701745474924        5.15870929791774
H           -0.35163686441094        0.97632342683624        5.55752181511165
H            1.16852606897846        1.38715043609944        3.65441212843800
H            0.51191219795121        0.77650268893367        1.39472749576891
H           -0.21722566764622       -2.12534956115162       -0.66616396761035
H            1.36769856844803       -1.68773658762640       -2.49163368821312
