101
 energy: -19.272326943179 gnorm: 0.000283083216 xtb: 6.5.0 (97a52f5)
C            0.69436788077769       -0.17351123803736        0.47416773562468
C            2.20224211176914       -0.03967599886501        0.18905362156963
C            2.51389145364207        1.44534255553813       -0.08100926552244
C            3.00433525640118       -0.48702554112417        1.42554778859231
C            2.57708707820258       -0.93099738222645       -1.00575267899798
C            3.16736766457729       -0.40931253205286       -2.17339232908225
C            3.51924955033566       -1.20810715505046       -3.23404200955812
C            3.28621110680314       -2.57765729346849       -3.14903479569826
C            2.69089529631708       -3.11737657306381       -1.99900851903637
C            2.34127467013179       -2.29094073719101       -0.93090715535493
C            2.57322467539428       -4.54178129104373       -2.20509187807246
C            2.07267638905792       -5.56890210943307       -1.40460487670213
C            2.09470848961691       -6.87290817260249       -1.86276372187401
C            1.54803115914910       -7.99223968193218       -0.96229343954039
C            2.37213888815019       -8.04475087087767        0.33776743732576
C            0.07194466650293       -7.70475125348794       -0.62836136692470
C            1.62972443810070       -9.37151305613802       -1.64522019817883
C            2.62956294149959       -7.13319277648488       -3.13952528832841
C            3.12784479345087       -6.13479619612853       -3.94071767171214
C            3.10053495010495       -4.82380245485351       -3.47403854614497
N            3.54681978679640       -3.62153210565514       -4.06068891427458
C            4.19671482749509       -3.49911011285659       -5.34064682983208
C            3.46038440742641       -3.68977760676465       -6.50379226314274
C            4.05649207711450       -3.58171717669793       -7.74011801572061
C            5.39935014364968       -3.29237530820945       -7.83305948235045
C            6.16907050939621       -3.10954163867355       -6.69026510351845
N            7.57830677517683       -2.84511149526318       -6.82202702863891
C            8.62651424734352       -3.69619123510790       -6.41382702916953
C            8.60600705367299       -4.94082551366103       -5.79090240102841
C            9.79873201698394       -5.55979234446660       -5.50646294161305
C           11.04019732115587       -4.97814833191158       -5.82919914308861
C           12.37497668772589       -5.66598214022044       -5.50103194890509
C           13.15696407009117       -5.91013047922403       -6.80534752566537
C           13.19735937490869       -4.75893624595732       -4.56628762883189
C           12.16585853192513       -7.02235264317666       -4.79961602008545
C           11.05377921197641       -3.74764013391724       -6.45870444374564
C            9.85178750945182       -3.10405637504015       -6.75431476842315
C            9.55532492419690       -1.85011424258333       -7.40554041794073
C           10.37249537596496       -0.86302772151273       -7.95692378952593
C            9.80559664698126        0.25394259504206       -8.54123525732911
C           10.72277267343338        1.32843136923501       -9.14695797663052
C           11.63269985397500        1.90083070733772       -8.04394802488620
C           11.58698757362233        0.69556148262543      -10.25405294884506
C            9.91887208353472        2.48936231567348       -9.76446095912715
C            8.40191348121067        0.36859548331115       -8.56134511731032
C            7.58197973277626       -0.59319895227789       -8.02283376845967
C            8.15903233311012       -1.71755521661695       -7.43924010928238
C            5.56675914655101       -3.20412641437572       -5.42541903462297
C            6.32035309390971       -3.00633811985362       -4.26062485148754
N            6.94297848817999       -2.84065132254824       -3.29394705606430
H            0.39717199005724        0.46465239255155        1.30591832034359
H            0.42798853932123       -1.19792019028121        0.73047062607840
H            0.11028024225631        0.11615510881863       -0.39883970698659
H            2.23666864782966        2.05952637994101        0.77542701771999
H            1.95777316042280        1.81261759685916       -0.94302407387793
H            3.57744495268737        1.59702500913401       -0.26274863702582
H            2.77252051681686        0.13739853130649        2.28791440952786
H            4.07503624854714       -0.41677267549495        1.23576287998537
H            2.77896972002562       -1.51889425157304        1.69144106867806
H            3.35465777218136        0.64723047093597       -2.24280119041273
H            3.97504764301385       -0.80098308578859       -4.11907200127880
H            1.89494504327635       -2.72506345067561       -0.05568725550553
H            1.67785763488863       -5.33295236074435       -0.43396784809381
H            2.30335792741290       -7.10744856132454        0.88821150719005
H            3.42377984344748       -8.22831581402389        0.11945965294438
H            2.01896840881567       -8.84174819411814        0.99151760793387
H           -0.03739760093011       -6.76457771352109       -0.08967616179731
H           -0.34768067641660       -8.49468830918259       -0.00605265410632
H           -0.52325829554894       -7.64058816594729       -1.53876757404063
H            2.66126229339807       -9.63460353384521       -1.87736477375383
H            1.05037934493583       -9.38753995591299       -2.56790535223225
H            1.23176750551087      -10.14889370886100       -0.99337916503592
H            2.65351196947927       -8.14409181489662       -3.50514616216989
H            3.53673100788808       -6.34446801878091       -4.91317457090096
H            2.41213182644940       -3.91854655493639       -6.42026041904948
H            3.47317504562683       -3.72724436111632       -8.63466155291146
H            5.87635696741169       -3.21524452409826       -8.79465532588031
H            7.66309656768181       -5.39232577430209       -5.53841681222641
H            9.77586298818192       -6.51836474114854       -5.01983300804166
H           13.38184770146199       -4.97377083666147       -7.31410557479529
H           12.58047921283508       -6.53270706376546       -7.48894929524909
H           14.10167576574280       -6.41473120145748       -6.60468203440427
H           13.42452274456293       -3.80448746419162       -5.03915141036781
H           14.14232190017136       -5.23029938390778       -4.29760075091615
H           12.64847483446977       -4.55492619962696       -3.64736874873241
H           11.60378616808985       -7.70896168343052       -5.43196298624936
H           11.63107946141874       -6.89920587721075       -3.85830512426341
H           13.12311051716182       -7.49200112868674       -4.57449528920753
H           11.98118156811759       -3.27567559965512       -6.72497812545236
H           11.43910449091057       -0.98473401395898       -7.92194002415028
H           12.26516950509009        1.12702529708478       -7.61101740912828
H           11.03763909173800        2.33504498860934       -7.24106833170290
H           12.28369731412396        2.67944077640800       -8.44061841105349
H           12.22029768989767       -0.09729379966350       -9.85854294217824
H           12.23551852324194        1.43970425253559      -10.71562024743026
H           10.95914197272217        0.26514442700531      -11.03366324253529
H            9.30671163483904        2.98675579884208       -9.01277500678073
H            9.26880953187590        2.13510561891148      -10.56394735106464
H           10.58691757408334        3.23717670785494      -10.19115201723217
H            7.95013474250523        1.23442730527389       -9.01125578129879
H            6.51115740054817       -0.49479196744810       -8.04275078371897
