44
 energy: -9.438479368995 gnorm: 0.000511665428 xtb: 6.5.0 (97a52f5)
C            1.06538892932667        0.12408732699283        0.81078754629333
C            0.40971639128498        1.27314471621638        1.20659631424330
C           -0.93697397596740        1.42098743268337        0.95605939741743
C           -1.65172035854246        0.41816548962665        0.30450638449192
C           -3.10500271472791        0.56708283349742        0.05034198571954
C           -3.58155966021812        1.38574188892333       -0.97643980421682
C           -4.95200715301013        1.52765009793617       -1.23342158906075
C           -5.90173257287000        0.85720708142229       -0.46892988294591
C           -5.44866195654720        0.04918059169768        0.55315427262059
C           -4.07750493318090       -0.10086363107685        0.81999460587387
C           -3.91889606937021       -1.00560144075433        1.97037616886565
C           -2.77816289874806       -1.45165667743180        2.62581249338280
C           -2.91256729327148       -2.30784761627947        3.69931388095995
C           -4.16666018375785       -2.71911125567357        4.12336600878698
C           -5.30943351213423       -2.27708158327155        3.48054218947593
C           -5.18234888335820       -1.41992972257123        2.40563821064099
C           -6.23197134448495       -0.77928881580758        1.53730912539221
C           -5.13219902203384        2.44622008937999       -2.36940363854490
C           -6.28735496397441        2.89481137022010       -2.99553316145939
C           -6.17217158507295        3.76963928124011       -4.05768263031965
C           -4.92647872749495        4.19435608152517       -4.49404821380832
C           -3.77104610642047        3.74944515819988       -3.87577761096091
C           -3.87720849141123        2.87413999472775       -2.81316880744222
C           -2.81477640136261        2.23027259191913       -1.96091024825310
C           -0.97365889130375       -0.73160205117358       -0.09594602395342
C            0.37248545538269       -0.87678726099302        0.15901526059881
H            2.11853595666761        0.00909333161015        1.00940538076900
H            0.95183903797929        2.05523580645401        1.71285407411417
H           -1.45463977102542        2.31260939500258        1.26604046053391
H           -6.95215183803990        0.96724113585440       -0.66483141762027
H           -1.80878086036204       -1.12861758417980        2.29362774924308
H           -2.03321686544882       -2.66046285834668        4.21327967688879
H           -4.25341277211265       -3.38921032776457        4.96307724431015
H           -6.28725121140174       -2.58789499077981        3.80511859925979
H           -6.90455693329721       -0.15167900660098        2.13180190899092
H           -6.83439731445749       -1.53609248911478        1.02355665174937
H           -7.25000600147784        2.55996380493219       -2.65094359849226
H           -7.06058366816855        4.12564567035255       -4.55358188039639
H           -4.85663095988595        4.87817910251974       -5.32424722397681
H           -2.80009894127193        4.07289857981021       -4.20837156367478
H           -2.21259681059189        2.98611595451286       -1.44531863436282
H           -2.14263337101192        1.61352410557657       -2.56735776588256
H           -1.52019316293773       -1.50957216924161       -0.60098790874072
H            0.88491241011243       -1.77364943177224       -0.14909398650830
