70
 energy: -15.000215057665 gnorm: 0.000299943504 xtb: 6.5.0 (97a52f5)
C           -0.91734918608892        3.36731142139674        3.56225630288081
C           -1.90492069744413        4.02472017621646        2.85551540017609
C           -2.53200430057976        3.39992236406446        1.80012750816670
C           -2.18058172290248        2.10162481975255        1.43155758697089
C           -2.85248707511948        1.42325018838603        0.29185541645436
C           -3.72646169035599        0.37459709775266        0.49121746556147
C           -4.31294779835513       -0.26795509251501       -0.62591424954958
N           -4.07843846837384        0.08569767248532       -1.88141144427894
C           -3.23288167606210        1.12778657542125       -2.09748773034474
C           -2.96985487723581        1.53211488562412       -3.42331967858383
C           -2.12026809559623        2.56405219422781       -3.69482984118266
C           -1.48598982445385        3.24534597934158       -2.65468773908376
C           -1.71725103677587        2.88307066285535       -1.36063339806081
C           -2.59467113008951        1.82473549670260       -1.04929110008344
C           -5.22183678566365       -1.40012740095027       -0.39540491871034
C           -5.54659413742966       -2.26120340826656       -1.44046927680438
C           -6.37152805686555       -3.35263784808012       -1.25668797934391
C           -6.90765162738747       -3.59840955044789        0.01430776034401
C           -6.60206956240145       -2.72376668148194        1.05361726325524
C           -5.76962411150854       -1.63796965483223        0.87210398012832
C           -5.45196599300811       -0.71107198797438        2.00816414802354
C           -4.04443364681671       -0.10061484413953        1.88378476056263
C           -7.77352758333394       -4.76070314748049        0.25913018197940
N           -8.48588175651106       -4.77099312060099        1.37663115206076
C           -9.28347206957747       -5.84680983438913        1.60855963132013
C          -10.05867601920813       -5.88236985710587        2.78674205277623
C          -10.86713052031834       -6.94324316014301        3.07185817217223
C          -10.94136956900210       -8.02641522674597        2.19452381020806
C          -10.20699729731733       -8.02618351426983        1.04557797025090
C           -9.36744787397642       -6.94130446886233        0.72169600733968
C           -8.58655246408172       -6.91555322649237       -0.46827950199918
C           -8.61196565804346       -8.05858965030352       -1.41891884835216
C           -9.72221794599782       -8.29005198361042       -2.23046654112389
C           -9.74293039268902       -9.35312857458328       -3.10617419735509
C           -8.65840742596712      -10.20400144010836       -3.18870170189495
C           -7.55093033589627       -9.98981157895441       -2.39228068594515
C           -7.52583535988812       -8.92822637479664       -1.51512043277551
C           -7.79417853186541       -5.80874120701388       -0.69253199097429
C           -6.93860835202995       -5.71799686751120       -1.92778731288922
C           -6.70381150249949       -4.27041545018969       -2.39623349499791
C           -1.18030622072156        1.45335777060102        2.15575698818106
C           -0.55648270944278        2.08168045766669        3.21077113037792
H           -0.42789428656719        3.85769188424089        4.38791192024796
H           -2.18585082920735        5.02825149349327        3.13048547376071
H           -3.30415447581249        3.90725446597828        1.24763933631409
H           -3.45824316484230        1.00300396604880       -4.22267284727238
H           -1.93441407793736        2.85566681454075       -4.71562498323212
H           -0.81367266250364        4.05766618541842       -2.87744895121883
H           -1.22680623239645        3.40579964133574       -0.55849712280412
H           -5.13451347166465       -2.06796540319881       -2.41384096811349
H           -7.02457307662783       -2.90942815815564        2.02395253707425
H           -5.55568397117600       -1.24966092144667        2.95844285848764
H           -6.20390955539551        0.08635882309660        2.03335406967542
H           -3.29236179883797       -0.84056449010050        2.18113711127679
H           -3.93245918796594        0.73472403250794        2.58589275493983
H           -9.99605946162024       -5.04730662692255        3.46219254775539
H          -11.45050473831502       -6.94888463859031        3.97808011800537
H          -11.58017986548185       -8.86231402987177        2.42830764802845
H          -10.26149812052836       -8.86157027532005        0.37003268878179
H          -10.56435852703125       -7.62282578683393       -2.16393370552464
H          -10.60676654223769       -9.52078419714967       -3.72853237826242
H           -8.67620055364165      -11.03520749214247       -3.87463465891032
H           -6.70492573663805      -10.65450845152779       -2.45648386919915
H           -6.66689297712048       -8.75967524477746       -0.88850252762642
H           -7.39946139354902       -6.30480328641666       -2.73186571156933
H           -5.97638139579625       -6.20138217821781       -1.72255305592680
H           -7.59918391791032       -3.89264254443567       -2.90370676011628
H           -5.89953506612334       -4.23258780516191       -3.14157486280731
H           -0.89866352176366        0.45320598109362        1.87426582458829
H            0.21521969739618        1.56930563175035        3.76181488864882
