63
 energy: -10.663145281865 gnorm: 0.000741341954 xtb: 6.5.0 (97a52f5)
C            1.58478157868590       -0.20493616186408       -0.91437041672017
C            1.15315882486641        0.07163975226529        0.36708283920548
C           -0.18821881393661        0.23460620621476        0.62380940131072
C           -1.13171294094371        0.12467615879960       -0.40070151864800
C           -2.57989551940589        0.30276930323003       -0.12842377100311
C           -3.48976717504730       -0.75693085364739       -0.32586085075520
C           -3.07610578066716       -2.03720859686379       -0.76271100863806
C           -3.96670947415391       -3.04281498506804       -0.95485238338857
C           -5.35163577314777       -2.85241153021142       -0.71989467481880
N           -6.27072193621396       -3.88795074827423       -0.92610960216242
C           -7.73313069156108       -3.66968957209062       -0.98585563667246
C           -8.40913265620651       -4.21608363660761        0.27405403912178
C           -8.08326223972267       -5.70956024204962        0.44774643156338
C           -6.56262466075266       -5.94832660584771        0.42751056839078
C           -5.91792448075173       -5.32480808038310       -0.81706318678301
C           -5.76455620194954       -1.60192997335637       -0.27829128307606
C           -4.87344629801451       -0.55011749612569       -0.06896111612513
O           -5.36714586842726        0.65123142193186        0.38361893213733
C           -4.47733570131784        1.68293249778177        0.57180752703458
C           -4.96398002037192        2.91470265224296        1.00829808284309
C           -4.13996672208321        4.01684053113171        1.19597207667594
N           -4.65992779539811        5.24267111686511        1.62883201124161
C           -5.86601103491229        5.35560728052365        2.48547298942824
C           -5.48176876879033        5.79422823335834        3.90466919788854
C           -4.64818590832001        7.08849562978028        3.88259112703736
C           -3.44139152192681        6.95121151556655        2.93814836844266
C           -3.90468959189793        6.51209980851042        1.54684196541869
C           -2.75648185697431        3.85748326435163        0.93193518902498
C           -2.25263914434378        2.66896215564235        0.51426354979873
C           -3.08380372523244        1.54048938177379        0.32324928695627
C           -0.67327100148629       -0.15384168957241       -1.69067513543181
C            0.66922819216441       -0.31698521367799       -1.94097952912405
H            2.63606775732777       -0.33225472620341       -1.11312617685293
H            1.86931699225257        0.15974271207610        1.16733276821181
H           -0.52793323435244        0.44063403187236        1.62407093486908
H           -2.03047048448573       -2.20732605147777       -0.94669675210633
H           -3.62058474108901       -3.98783524487069       -1.33074310340754
H           -8.10824007219404       -4.19359025514967       -1.87020075088450
H           -7.95563068111854       -2.61256069746263       -1.15437311324696
H           -9.49379950868837       -4.04814135162094        0.24168394638499
H           -8.04511312222567       -3.66129561358756        1.14629467539121
H           -8.55214902265462       -6.28162653836987       -0.36114437426101
H           -8.52415297039069       -6.09622212622826        1.37619907244194
H           -6.33626377205600       -7.02149346427168        0.48355489922406
H           -6.11477053915563       -5.50266206414436        1.32303717626842
H           -6.26407688747744       -5.82866006711969       -1.72401483729456
H           -4.83278181033066       -5.44604771924512       -0.79283116136534
H           -6.79576901167793       -1.42516511110067       -0.04460464039538
H           -6.02279040200069        3.00248781926557        1.15183943610690
H           -6.40484786119810        4.40531628572691        2.50502333832786
H           -6.54108139158229        6.08373724636005        2.02647342868690
H           -4.89871710073019        4.99647928503127        4.37928638112496
H           -6.37778997184719        5.91878638177301        4.52729319401006
H           -4.31846821642526        7.35480778901090        4.89592216957050
H           -5.27799550734366        7.92195157200457        3.55017908508034
H           -2.74993515252016        6.20158322402307        3.33953523337923
H           -2.87170614234526        7.88846431565865        2.88427210376323
H           -3.07578033530699        6.41691294674438        0.84007690568440
H           -4.57265761794125        7.26575812945056        1.11852878405457
H           -2.08834171451106        4.68178267698086        1.10085506034625
H           -1.19980523964592        2.57465041323247        0.31750588899407
H           -1.38795523890066       -0.22837020076836       -2.49193031447841
H            1.00764770884608       -0.53053512191948       -2.94145272781671
