53
 energy: -11.533603462584 gnorm: 0.000327016100 xtb: 6.5.0 (97a52f5)
C            1.40543143401873       -0.84631690973813        0.51616738352624
C            1.05070452142624        0.48810839943030        0.55344855106654
C           -0.26335367478405        0.85937690943114        0.37964684221942
C           -1.25500421280563       -0.10139261086928        0.16288892192638
C           -2.67541828581419        0.29297097952120       -0.02637684429188
C           -3.06917580990352        1.02970164286660       -1.17133039854633
C           -2.12825253041745        1.40825905059728       -2.16175353797900
C           -2.50159696864944        2.12526601557502       -3.25529912914376
C           -3.83847590665416        2.50712574665411       -3.42618611968100
C           -4.77543798364495        2.15291199828957       -2.50617060228835
C           -4.43334850170488        1.39487446329672       -1.35860834953861
C           -5.41485336779423        1.01425436131124       -0.40786518128605
C           -6.84233888778687        1.36746430067059       -0.61728982115692
C           -7.56057964246089        0.84394551351074       -1.69705734774846
C           -8.88510109160749        1.15545530658729       -1.88206901894528
C           -9.55373353733273        2.00391002614627       -0.99898238302646
C          -10.98312721532294        2.33201698472111       -1.19466354762578
C          -11.48219983184704        3.59767025826912       -0.92643098050565
C          -12.81835841219480        3.82857371856573       -1.12844557403389
C          -13.61089603274462        2.80058578264270       -1.58655396081204
N          -13.17807626529330        1.57915019013204       -1.85384985899232
C          -11.88797681571003        1.37920929547903       -1.65362737932439
C           -8.83769737991060        2.53114818109628        0.07619518171900
C           -7.51298973714088        2.22131203089017        0.26417849505109
C           -5.01898135445950        0.28087805352932        0.74009360722917
C           -5.96426684251450       -0.13474378672998        1.71095283351475
C           -5.58529061341708       -0.82861425455302        2.81757645488908
C           -4.23759579059408       -1.15194167961094        3.02038383324277
C           -3.30011200909618       -0.78652541022629        2.10562033978927
C           -3.65278055846869       -0.07296460691175        0.93258058209197
C           -0.87500714370214       -1.44605955087116        0.12871195286868
C            0.44039332886861       -1.81131784725605        0.30389611275605
H            2.43497622262684       -1.13456458405808        0.65260737896103
H            1.80448208386339        1.24011426434439        0.72057120767997
H           -0.54441124087478        1.89792688880422        0.41514537583544
H           -1.10030010193102        1.11670677644230       -2.03916830334136
H           -1.76886921264706        2.40489024447244       -3.99460002229978
H           -4.12213306500790        3.08168667015129       -4.29274933031396
H           -5.79895010202614        2.45362737780939       -2.64245416011164
H           -7.05868030290469        0.18056815209289       -2.38032542785978
H           -9.41844707672903        0.75139367412930       -2.72496860322495
H          -10.82769061511114        4.37926949363848       -0.58091772337497
H          -13.24129824082504        4.80028852949923       -0.93260377128204
H          -14.66349629409897        2.98156644084511       -1.74574192546520
H          -11.52165161021516        0.38502738202236       -1.85238513364663
H           -9.34181009773784        3.17760766559367        0.77346037999479
H           -6.97145024089070        2.63674436154782        1.09661766259780
H           -7.00201937184323        0.10346694954503        1.56000862983005
H           -6.32150691406405       -1.13091554390748        3.54435776857983
H           -3.94699584660743       -1.69448383336710        3.90513938286621
H           -2.26695965996556       -1.03651262000787        2.26929585350789
H           -1.62901798991022       -2.19482243110883       -0.04358336801694
H            0.71799679636595       -2.85233841093226        0.27388307211388
