49
 energy: -10.745903776825 gnorm: 0.000631457593 xtb: 6.5.0 (97a52f5)
C            0.73954087467634        1.17814709882365       -0.08659513969035
C            1.47136573149528        0.01942940021277        0.02820147072250
C            0.78977109972478       -1.16436510400307        0.07995278667244
C           -0.60692890445026       -1.17042286072256        0.02324756113068
C           -1.33087281517828       -2.46325534606012        0.06615565981505
C           -1.10967156233362       -3.39072011104438        1.11789159145658
C           -0.26443037742624       -3.08244607553282        2.21281783067082
C           -0.03782333983569       -3.97889476950253        3.21027022433477
C           -0.64534039726028       -5.23961549366019        3.17640671231958
C           -1.48295635286089       -5.56786562388977        2.15660711337392
C           -1.76194003587089       -4.65747051820794        1.10705479413660
C           -2.65808977995235       -4.99648048693847        0.06089263799512
C           -3.35073777605943       -6.31044797905168        0.06194748447525
C           -4.26857350948123       -6.64025116063797        1.09257150363277
C           -4.91098749775260       -7.83656842906845        1.10882111385494
C           -4.68432345548502       -8.79368806190642        0.09096982515942
C           -5.33581499182925      -10.04572827920788        0.07732897536490
C           -5.09510023457701      -10.94353418980140       -0.92014333431525
C           -4.19538015127121      -10.63762345047889       -1.94916232101058
C           -3.54867247167120       -9.43900136160448       -1.96722544604657
C           -3.77403082908234       -8.48329795315388       -0.94856103070783
C           -3.12153649739660       -7.23552593857063       -0.93701179912847
C           -2.89816436899439       -4.05928019798841       -0.97606829984577
C           -3.79757810135856       -4.34329764454775       -2.03396973081823
C           -4.02486041683000       -3.44719081833174       -3.03193460974415
C           -3.37347123493095       -2.20772129224485       -3.02828676791040
C           -2.51367412437557       -1.89211847676295       -2.02329567895110
C           -2.24440861110467       -2.79446784096571       -0.96661864760261
N           -1.31860530721703       -0.03673107080194       -0.09760160736414
C           -0.62995637084921        1.09006090364189       -0.14747827765173
H            1.23213382500063        2.13566736709756       -0.13218077529282
H            2.54820682943182        0.04339294580242        0.07090566047749
H            1.31940288688390       -2.09917997847247        0.14699700794466
H            0.19252245872623       -2.11024663702540        2.25921537997777
H            0.61156311940038       -3.72095798656111        4.03088003846799
H           -0.45102871576104       -5.94789607840673        3.96518717647278
H           -1.94455865762627       -6.53903086891600        2.13716505679546
H           -4.45416413031414       -5.91407931814473        1.86524213388335
H           -5.60486125243465       -8.07038319988622        1.89770158351575
H           -6.02698079911207      -10.28210317107396        0.86792274546568
H           -5.59911257942157      -11.89617577304034       -0.91963371198555
H           -4.01605321449948      -11.35776511566057       -2.73072373435820
H           -2.85753925378755       -9.20415539566600       -2.75822393051482
H           -2.42401285772867       -6.99993218037012       -1.72013978847439
H           -4.30993968623767       -5.28877043830314       -2.03962486270124
H           -4.71056196020601       -3.68785140958814       -3.82786867278469
H           -3.56235166201745       -1.50156065241723       -3.82025832401257
H           -2.03456839028957       -0.93071295593436       -2.00936701889282
H           -1.20698415046671        1.99735397857555       -0.24233055831288
