44
 energy: -9.487355006293 gnorm: 0.000416310221 xtb: 6.5.0 (97a52f5)
C            1.38234049162341       -0.90888206798086        0.68365752453976
C            1.02660324327377        0.42529971078760        0.72304996331806
C           -0.27691627849499        0.80048791294433        0.48840988712310
C           -1.25691350077354       -0.15607135688865        0.20853412985742
C           -2.66704910068479        0.24663148133683       -0.03529277085453
C           -3.00868727057362        0.99765840453345       -1.18744625387649
C           -2.02954456528624        1.35787364533583       -2.14748560394448
C           -2.35317301219723        2.08664049037585       -3.24904496271739
C           -3.67525586316674        2.50199843860922       -3.45780963172875
C           -4.64678396684933        2.17033321094700       -2.56594126294316
C           -4.35674732560994        1.40162332110557       -1.41041551245916
C           -5.37119183351914        1.05266009042753       -0.48446588044352
C           -6.77502840536503        1.48933725583279       -0.70479036543179
C           -7.52576884739121        0.99082682729713       -1.77312366181220
C           -8.82669988465033        1.39656454647970       -1.96922844925011
C           -9.40758594168865        2.30587655555529       -1.10665012715251
C           -8.68232246735772        2.81071598791694       -0.04497552775889
C           -7.38108376480569        2.40900607537092        0.15577127480570
C           -5.03141855878986        0.29129136581291        0.66143478826586
C           -6.01640594874090       -0.10023624654246        1.60323228460391
C           -5.69131111048867       -0.82246342455365        2.70858761925047
C           -4.36113492154508       -1.19713534731398        2.94138775945463
C           -3.38681955812136       -0.85019903414596        2.05847739003578
C           -3.68268353674229       -0.10823629583574        0.88698382809589
C           -0.87644812153062       -1.50044086035046        0.17233885918940
C            0.42875964226803       -1.86956442906055        0.40782758086322
H            2.40347384186386       -1.20032182716057        0.86868883263158
H            1.77095317463749        1.17394376501921        0.94073334801986
H           -0.55935511191840        1.83871064680552        0.52537284039495
H           -1.01334915335200        1.03954875097523       -1.99595363487763
H           -1.59254543366704        2.34835624892179       -3.96647924279556
H           -3.91892479454314        3.08674909532918       -4.32985648109166
H           -5.65813762478317        2.49720467032395       -2.73066112449724
H           -7.07234388182307        0.27683950017340       -2.43914584494866
H           -9.39413406184195        1.00221042330292       -2.79646289620430
H          -10.42666106078441        2.62114006232161       -1.26142911046823
H           -9.13584380936608        3.52086041207853        0.62724308342859
H           -6.81091187010862        2.80393938571854        0.97916465045527
H           -7.03995818830104        0.18128717417553        1.43023744320100
H           -6.45650339359699       -1.10778731547937        3.41200919776561
H           -4.11371224021905       -1.76411489867599        3.82402552034614
H           -2.36767522177388       -1.13788284770077        2.24650540755318
H           -1.62126647856882       -2.24627583930267       -0.04666382747566
H            0.70808571535426       -2.91013366482116        0.37547895953377
