42
 energy: -9.129249535824 gnorm: 0.000909665438 xtb: 6.5.0 (97a52f5)
C            1.43936295341568       -0.93201404230178        0.68536063011579
C            1.09291997832089        0.40417955178499        0.72192494620783
C           -0.21055682124503        0.78639063288415        0.50041601409038
C           -1.19921221477580       -0.16454882509857        0.23522695117405
C           -2.60729375704730        0.24458522867149       -0.00408254207802
C           -2.94905055614777        0.99695653210943       -1.15495948746516
C           -1.97122487003867        1.36663684606309       -2.11233952527716
C           -2.29995662703033        2.08914043425944       -3.21623320706869
C           -3.62675583792501        2.48468056321895       -3.43296924158964
C           -4.59698317688100        2.14348324596283       -2.54442592819034
C           -4.29944906922422        1.38711499731927       -1.38375770875928
C           -5.31342588908560        1.02528178794272       -0.46598973787700
C           -6.73938720173426        1.43586349174275       -0.71080815790776
N           -7.51264215856760        0.79243535242991       -1.60452934779257
C           -8.66994277451373        1.10305168788380       -1.83465514914904
C           -9.07973639477396        2.11607414239667       -1.11901583129098
C           -8.45075404872280        2.82686571797614       -0.22185149775341
N           -7.29778991327440        2.46551745586458       -0.04867498145054
C           -4.97342121832904        0.27472622522233        0.68388191168585
C           -5.95853558804497       -0.10883130069239        1.62741382622862
C           -5.63314673724562       -0.82120169537208        2.73830097784104
C           -4.30261004697927       -1.19153891712845        2.97512185939051
C           -3.32761538880471       -0.84777048148188        2.09230968629465
C           -3.62325507532957       -0.11428583270866        0.91586445382752
C           -0.82793523683163       -1.51119744897564        0.20205690802286
C            0.47692185800473       -1.88774034312397        0.42583778406158
H            2.46069712837397       -1.22883680377744        0.85877994915738
H            1.84447452976207        1.14917689100093        0.92536972813162
H           -0.48571443572441        1.82632096347341        0.53589722203860
H           -0.95171977300285        1.06130313042084       -1.95712408147783
H           -1.53977138718198        2.36085119685791       -3.93013501432332
H           -3.87552843573679        3.05864232926159       -4.31054147292701
H           -5.61384359269381        2.44817656751279       -2.71689926127681
H          -10.68646871750019        0.54477351292831       -3.21477586829301
H          -10.10824660824884        2.41720105982274       -1.30079804258269
H          -10.06694892986085        4.48717852891244        0.55490957476716
H           -6.98077637634974        0.17612817183340        1.45310719201218
H           -6.39805890896531       -1.10123950902505        3.44379448951952
H           -4.05503266417797       -1.75058476170774        3.86262869948041
H           -2.30770017232600       -1.12894518271964        2.28576301261852
H           -1.57947966561567       -2.25257677783041       -0.00808785996950
H            0.74807382213017       -2.93029432379168        0.39687812780107
