34
 energy: -7.311329869693 gnorm: 0.000555796860 xtb: 6.5.0 (97a52f5)
C            1.33903236851628       -1.10155476349224        0.75056962425368
C            1.07646220591632        0.25200597223222        0.83484537980497
C           -0.18853348135370        0.72870073422115        0.57231762961481
C           -1.22021626111898       -0.14362070137941        0.21928901707634
C           -2.58693812443562        0.36736291330800       -0.06574871292992
C           -2.84097802405828        1.11343101307616       -1.24253733921643
C           -1.81959915868027        1.39025591572908       -2.18800361758500
C           -2.07909907593771        2.10031170079028       -3.31726775265363
C           -3.37468543556844        2.57998747170639       -3.57650089333587
C           -4.38562617236677        2.33610219050481       -2.70305305575030
C           -4.15621701443152        1.59452985225843       -1.51192971429276
C           -5.18549167610051        1.32557579629319       -0.61265924684687
C           -4.95895863703449        0.59589712704943        0.55210214566342
C           -6.00595575532593        0.32501349125864        1.47509612845808
C           -5.76659553248919       -0.37544607166843        2.61375977513061
C           -4.47389423273062       -0.84652256831088        2.90049005488938
C           -3.44791529596031       -0.61171044418308        2.04084767686653
C           -3.64851993637645        0.11053669845614        0.83591093409488
C           -0.93566041297699       -1.50872586605073        0.14042788808685
C            0.33134737774270       -1.97981453386610        0.40311683006045
H            2.33027887775130       -1.47266646025282        0.95504858055517
H            1.86317823117412        0.93635570961664        1.10741419574686
H           -0.39915680640930        1.78236863975938        0.64067613934001
H           -0.82614789560947        1.02289734554927       -2.00050532620174
H           -1.28818687346880        2.29688781152395       -4.02269682618337
H           -3.56305244751873        3.14318226031775       -4.47592442169280
H           -5.37756946142326        2.70266701880838       -2.90390852461338
H           -6.17506562668477        1.68948791401043       -0.82162507830872
H           -6.99587394394414        0.68749082858838        1.25826230677686
H           -6.56920939560572       -0.57203941308598        3.30574551876767
H           -4.29858193512263       -1.39736106531076        3.81022808680257
H           -2.46086365540079       -0.97220544702024        2.27036108249271
H           -1.72339137294367       -2.18915425491234       -0.13428082395324
H            0.53790457997697       -3.03555681552541        0.33511233908140
