64
 energy: -14.249000131675 gnorm: 0.000253077012 xtb: 6.5.0 (97a52f5)
C            0.85181082333564        0.92549701775422       -0.08878992140256
C            1.44387642994012       -0.17631726870191        0.47782654513067
C            0.72222760441991       -1.33898213053252        0.52358039189882
C           -0.56985064210000       -1.37350962270687        0.00706642271070
C           -1.35278204789398       -2.62971777098885        0.06268607681571
C           -1.19594190653726       -3.48995980206818        1.13845490631198
C           -1.93363536130558       -4.65762659652023        1.21725188731518
C           -1.78599932184777       -5.59671398442447        2.34949221508552
C           -0.52359042829107       -5.93180757878198        2.84017816551417
C           -0.38340736755134       -6.81021560966587        3.88693571184111
C           -1.50205657800505       -7.38113366234639        4.49140856989620
C           -1.37048530193306       -8.30835794283648        5.60733035661446
N           -2.37994871913168       -8.69969881378852        6.37915880980555
C           -1.86493629276534       -9.55319545737178        7.28771077115429
C           -2.66767437760296      -10.12488210236951        8.37820107199103
C           -4.04527415557265      -10.20015733065887        8.21018472835956
C           -4.82907401230947      -10.70231300355800        9.21413823851082
C           -4.20705377239629      -11.10902347363356       10.36917257219120
C           -2.84080693260169      -10.98623162778479       10.46105329522781
N           -2.06197071122682      -10.50271296431588        9.51079705655634
C           -0.47864747995740       -9.72425033165104        7.04640698911016
C            0.50974472987951      -10.61737707872901        7.65518904555265
C            0.10770739094978      -11.79404908010236        8.28051420782123
C            1.04286867997104      -12.64585796679354        8.80163157928249
C            2.36615295017107      -12.29999132881788        8.67542504844314
C            2.68224441489124      -11.12756049776798        8.03180099648544
N            1.80116178153370      -10.28821408636821        7.51642002796808
N           -0.18884528158820       -8.90990015957812        5.99619409032957
C           -2.76394556839101       -7.04144770360416        4.00813656361169
C           -2.90401704420748       -6.17196582688386        2.95413306355418
C           -2.81274876309232       -4.90243622941511        0.17759467208930
C           -2.92253355847365       -4.00829942353648       -0.87606110255905
C           -3.84826115450151       -4.30329236398480       -1.99428754116028
C           -5.04800458332562       -4.96340139275534       -1.74487061583997
C           -5.89954179422074       -5.24374444445345       -2.77976388030732
C           -5.52708869637663       -4.85294691150134       -4.04236864957657
C           -4.32870729379540       -4.20095512838030       -4.20284510054709
N           -3.48771542723256       -3.91705468442020       -3.22335031381137
N           -2.20422926134553       -2.88049792925595       -0.93931591933404
N           -1.14548947217594       -0.30133047280734       -0.54888126917351
C           -0.42523457697001        0.80660263652679       -0.58080363840038
H            1.37963108775852        1.86315336021283       -0.14842540221508
H            2.44631730101952       -0.12789850631314        0.87092280746562
H            1.15852659308398       -2.23123829516608        0.93722789580166
H           -0.52381425540878       -3.23643577734812        1.93737656003403
H            0.34748617543558       -5.50232348989664        2.37640957643768
H            0.59646072828667       -7.05493548009796        4.25582651051585
H           -4.48085938688580       -9.85885936782788        7.28737012991929
H           -5.89869046251345      -10.77369021769200        9.10291203866246
H           -4.77960801123534      -11.51143274071009       11.18867172496315
H           -2.34544785421237      -11.29808045144021       11.36827220585103
H           -0.93942999018820      -12.02921363138473        8.34554267187498
H            0.75084872415472      -13.55925756392591        9.29372859192877
H            3.14036361586328      -12.93741991466115        9.06998362251688
H            3.72064557779908      -10.85269991464780        7.92347675428129
H            0.72529627907533       -8.83201991566799        5.55365739452335
H           -3.63038321183434       -7.47670191939471        4.47453728879805
H           -3.88463480568928       -5.91407135250461        2.59338344773929
H           -3.38390343715242       -5.81240370836090        0.17314531575425
H           -5.31236838175504       -5.23262894051147       -0.73726405576133
H           -6.83427408247882       -5.75248481294739       -2.60899369873137
H           -6.16323981134107       -5.05171004869313       -4.88926078183877
H           -4.02952075619147       -3.88864910182496       -5.19209737794082
H           -0.89643855595317        1.66742192041527       -1.03092934563300
