63
 energy: -13.554501713569 gnorm: 0.000574480171 xtb: 6.5.0 (97a52f5)
C            1.20191713309840       -0.40710170188033        0.13764715400478
C            0.77225566624042        0.70420373296924       -0.55943155938386
C           -0.57549032631909        0.96408524883227       -0.67831258547029
C           -1.52127615976908        0.12316041477788       -0.09784365592981
C           -2.95870771244653        0.43153760268429       -0.24608217171424
C           -3.86406698873809       -0.01672818176730        0.70321848472415
C           -5.21521064332327        0.25994554633378        0.57786783132555
C           -6.20338134668711       -0.21567216922483        1.56757289666824
C           -7.50080747308468       -0.55965245866521        1.18166301822513
C           -8.41780987276475       -1.00461495629588        2.10230101081083
C           -8.07965362140236       -1.12479969515863        3.44927608597339
N           -9.03669182001217       -1.58247596427188        4.41055784660366
C          -10.05016947110518       -2.52875559789989        4.03502745195011
C          -11.34265588696402       -2.42354712212574        4.54392016087919
C          -12.31389864566074       -3.33280325402430        4.18973246214810
C          -12.01321195261422       -4.36499630046812        3.32232140952691
C          -10.73555249891739       -4.48489892510001        2.81074559444129
C           -9.76271567354305       -3.57647328485995        3.16313275702068
C           -8.99781494430262       -1.08970817132703        5.75965481123832
C           -9.25314233015855       -1.93912957506959        6.83370840936319
C           -9.22106215789811       -1.46659835218196        8.12650181143862
C           -8.93545738300807       -0.13732220809789        8.37127962323595
C           -8.68245539403372        0.71854681196825        7.31679657275753
C           -8.71299717256518        0.24820428960072        6.02316688827367
C           -6.78539218225472       -0.78205571118232        3.83739179459956
C           -5.86743020603134       -0.33756443262610        2.91766517285679
C           -5.58736300541190        1.00575661894460       -0.52805512703847
C           -4.63756617810439        1.44296111626187       -1.43842768489025
C           -5.05236011231715        2.24159737291492       -2.61041630441383
C           -4.27597186930728        2.21815954328576       -3.76598556483751
C           -4.63286200385811        2.95380772927399       -4.87483553247008
C           -5.77144510074366        3.73382717225615       -4.84830216705370
C           -6.54872318728740        3.77865192387500       -3.70805985646157
C           -6.19424140892157        3.04230080713828       -2.59833155329421
N           -3.33433446989229        1.15796897460320       -1.30812265268814
C           -1.06944199110815       -1.00008493220952        0.59458759873083
C            0.27912935835500       -1.25894573885711        0.71133944909493
H            2.25614391105997       -0.61127468263692        0.23066704785232
H            1.49060381428347        1.36834277315402       -1.01174069006001
H           -0.91668401500654        1.82604836920255       -1.22462205315309
H           -3.51820045687741       -0.58450304366660        1.54648939669843
H           -7.77630870801458       -0.48733206325420        0.14397900742677
H           -9.41706471990388       -1.25748802633004        1.79395588508332
H          -11.57232071357464       -1.61450201123218        5.21509820315878
H          -13.31033320140286       -3.23854350133178        4.58962631992513
H          -12.77440086543718       -5.07610998789913        3.04568932648084
H          -10.49967181889857       -5.29176195064346        2.13620419363663
H           -8.76332771506230       -3.67094048698038        2.77573765921738
H           -9.46905569199352       -2.97465778446884        6.63650997988633
H           -9.41842986781073       -2.13508694516122        8.94859141137330
H           -8.91054493215256        0.23165448358865        9.38363721366085
H           -8.46206458691101        1.75634960048418        7.50674217246922
H           -8.52642228051750        0.91213039815772        5.19721624194641
H           -6.51190121871423       -0.87916258502074        4.87344082057440
H           -4.87771190887912       -0.06359443040569        3.23913334038317
H           -6.62316732876215        1.24604892067493       -0.67812713786233
H           -3.38706845998914        1.61185742054896       -3.77905195374985
H           -4.02217413014101        2.92062732692805       -5.76235026046606
H           -6.05143379469736        4.30961394757095       -5.71537672623686
H           -7.43308698290097        4.39442524337594       -3.68443455065867
H           -6.79209748823986        3.10149922766035       -1.70590622564198
H           -1.78227008118783       -1.68207933434243        1.02360555586887
H            0.61434227458809       -2.13043705039414        1.24982594193812
