83
 energy: -18.050665393539 gnorm: 0.000925295607 xtb: 6.5.0 (97a52f5)
C            2.08109007658478       -0.37427730910394        0.65017778276086
C            1.79739165670515        0.09761410374309       -0.61580129748209
C            0.48863465665433        0.21932458775401       -1.02842894389924
C           -0.56522629738811       -0.12213478308641       -0.18415008895224
C           -1.95381838194622        0.01729967126835       -0.66394082797558
C           -3.00743243808088        0.08551776717024        0.22274079398802
C           -4.29177227731056        0.20623751019345       -0.26669313257793
C           -5.44123231944398        0.28216409988002        0.65165400855889
C           -6.70719269281691       -0.10510473716951        0.20998199867681
C           -7.79782910121359       -0.04929712406718        1.04257477360568
C           -7.66361540537186        0.41348960729484        2.35090117040735
N           -8.78320575640729        0.47500182527787        3.26046492823530
C           -8.75508430480162       -0.31762569375690        4.45095044770362
C           -8.29269635086459       -1.62983216738887        4.42092256973513
C           -8.29149477095486       -2.39836356082724        5.56160589815396
C           -8.74748981992775       -1.86596963448270        6.75079421448175
C           -9.19446779334828       -0.56036636422493        6.79604457983471
C           -9.20439928215196        0.22798050657477        5.65843982548809
C           -9.55764114519993        1.72033527881221        5.70099654966135
C          -10.50205368307235        2.00150234876555        6.87699031907120
C          -11.74514880306130        1.38884042296904        6.92040987678160
C          -12.61036729647802        1.61414444982035        7.97087823977199
C          -12.24304113445171        2.45768085958619        8.99817987360337
C          -11.00891123598169        3.07252532987954        8.97169629529136
C          -10.14642696182231        2.84408516038725        7.91965675654923
C           -8.25404110718926        2.52857468892230        5.83127446411938
C           -8.18527309512366        3.83946270086434        5.38360651241276
C           -7.02174848168939        4.57116634755543        5.49838922820460
C           -5.90363220385078        4.00354386216008        6.07102485648324
C           -5.95594785439100        2.70531035206724        6.53180133756023
C           -7.12266665362783        1.97887238447513        6.41684649020803
C          -10.22648401509642        2.10529391540966        4.37279391898123
C          -11.19489588491035        3.09174076725711        4.29949997532913
C          -11.68658067475080        3.51592357069019        3.08131374126267
C          -11.20052235438140        2.96513966889406        1.91318320645755
C          -10.23761344523299        1.98404183385275        1.96542017440378
C           -9.74991397721796        1.52975915175207        3.18765713089915
C           -6.40223236905331        0.80978265144542        2.79365817081708
C           -5.31260874503387        0.74682612034065        1.96283121979574
N           -4.51630264145053        0.24884036462361       -1.57910095447545
C           -3.44060159285583        0.19676746250153       -2.36475619241578
C           -3.67965598540529        0.27038229226837       -3.81693082472582
C           -2.61473393187421        0.28338532268422       -4.71302949345268
C           -2.83716487136563        0.35579604434106       -6.07060314089791
C           -4.12833128793960        0.41625580574182       -6.55739501081088
C           -5.19637588668095        0.40369988018056       -5.68168484326348
C           -4.97442992074221        0.33205489798927       -4.32392543755308
N           -2.16956407198001        0.08658699125578       -1.97637197888876
C           -0.25882174556374       -0.60487254880169        1.08883204298596
C            1.05109899336898       -0.72680773739554        1.49916217826283
H            3.10471939078751       -0.47081595228748        0.97385437887578
H            2.59987255159189        0.36953699492607       -1.28184911948061
H            0.26171892388334        0.58312195556567       -2.01544664170689
H           -2.83356798437479        0.04130829562628        1.28049627114089
H           -6.81361590870011       -0.45947840090308       -0.80033356675823
H           -8.76219279450491       -0.38305810137775        0.70238589197677
H           -7.94418615313328       -2.03552134703547        3.48744755008145
H           -7.93564924432326       -3.41507263717762        5.52672588616091
H           -8.74531369956605       -2.46588042309220        7.64609343504732
H           -9.52123146183937       -0.13743638003495        7.72994062029471
H          -12.02807468415316        0.72871106161403        6.11834126499411
H          -13.57332594159542        1.13037166874068        7.98858026777747
H          -12.91759809473353        2.63462221825782        9.81996848882663
H          -10.71741925843062        3.73116654552553        9.77358039388880
H           -9.18392855803272        3.32366987328267        7.90480245582060
H           -9.05380022070226        4.28613833986554        4.93370952214846
H           -6.98647974074199        5.58641350376828        5.13820077815607
H           -4.99269860922423        4.57292442143165        6.15928229006189
H           -5.08514580289676        2.25806847535435        6.98304894864271
H           -7.15755905537973        0.96727923659371        6.78002735062350
H          -11.55231488442006        3.54438316975557        5.20784987643910
H          -12.44000726932948        4.28571887412932        3.04247549326358
H          -11.57585381302348        3.30273474054026        0.96078589730102
H           -9.85749265538186        1.55285637194159        1.05758028286110
H           -6.30716698763773        1.18345142203265        3.79841476526974
H           -4.35364302805910        1.08204204186471        2.31689009234190
H           -1.61188422424076        0.23617944727536       -4.32650806275691
H           -2.00300896296699        0.36674970480790       -6.75310120502314
H           -4.30218987855494        0.47326340646193       -7.61959690556874
H           -6.20418037037395        0.45110151508116       -6.06069053050106
H           -5.80130097004066        0.32233315361133       -3.63569701977462
H           -1.05185611492069       -0.90524162074306        1.75029177056935
H            1.27264017124599       -1.10297052196962        2.48483569599252
