82
 energy: -17.900594105691 gnorm: 0.000905924570 xtb: 6.5.0 (97a52f5)
C            2.11799736548687       -0.59594898395422        0.58391487147052
C            1.83663279926324       -0.07438877603847       -0.66258526947787
C            0.52853039823338        0.09689505887359       -1.05845101848288
C           -0.52769601688521       -0.24412718164932       -0.21716501961363
C           -1.91426124807548       -0.04897431183496       -0.68179383651691
C           -2.96675539456781       -0.02163360998208        0.20788781715692
C           -4.24892921002391        0.15330130285930       -0.27216536343060
C           -5.39843944644220        0.19603316825427        0.65581666737958
C           -5.22378766383032        0.68985330332788        1.94904820562005
C           -6.28068980302838        0.73790848378589        2.80931852302412
C           -7.51359562263431        0.28603117578538        2.36589903116708
N           -8.65106780510403        0.30056446484570        3.25402012507153
C           -8.61649956593117       -0.49135421916828        4.44334179450453
C           -8.04683613528285       -1.76102409563944        4.43471106344466
C           -8.04120235895714       -2.53436497148945        5.57209344750994
C           -8.60061902247704       -2.04897178978598        6.73672485801239
C           -9.15562335195917       -0.78509556248577        6.76125867855304
C           -9.17109491209524        0.00753201975196        5.62673515019867
C           -9.65061009342367        1.46420409662523        5.65602210565498
C          -10.68602836880614        1.64909144237540        6.77282199016675
C          -11.87273712966061        0.93339917631763        6.73356814267466
C          -12.81805870940455        1.07246230320461        7.72849423891697
C          -12.58831254373880        1.93158110419850        8.78240148696270
C          -11.41151961765049        2.64785739072816        8.83815191762364
C          -10.46885089157115        2.50624454772505        7.84120537065128
C           -8.43099471336271        2.37806096533088        5.87218917268353
C           -8.44652308280171        3.69631775623037        5.44148981399362
C           -7.36023762010175        4.52324664516701        5.63764281866760
C           -6.23605320453292        4.04536626106183        6.27649852795632
C           -6.20570182932733        2.74103826298844        6.72119782023540
C           -7.29528715243408        1.91901464896281        6.52366439657777
C          -10.26943575467497        1.80864233926929        4.29333216595817
C          -11.30313792995295        2.72099274502965        4.17076019147271
C          -11.75344651337700        3.12280730534813        2.92960050194951
C          -11.16122516131835        2.62394324926549        1.78775802541018
C          -10.13390144339512        1.71507141414996        1.88866913227217
C           -9.68593781337562        1.28220954431018        3.13339767426910
C           -7.59083575325568       -0.19354526953877        1.06244569169324
N           -6.58635120137011       -0.24277078900772        0.21077818618241
N           -4.47227019214241        0.28935967939729       -1.57692531462454
C           -3.39777018205348        0.27047216841336       -2.36527689151760
C           -3.63702059517996        0.45311261127258       -3.80759873729811
C           -2.57259588190857        0.56525365816888       -4.69706652152514
C           -2.79746746153678        0.74511413310655       -6.04401873863560
C           -4.08969399468136        0.81408181960003       -6.52629992040596
C           -5.15716478503246        0.70432021629012       -5.65694278925096
C           -4.93280205959777        0.52594971566407       -4.30979303643654
N           -2.12909694660439        0.11147782248887       -1.98658454877019
C           -0.22370650701930       -0.77680662183711        1.03600707493588
C            1.08554609565923       -0.94835245956687        1.42987076170495
H            3.14116633148999       -0.73102337916340        0.89454823518206
H            2.64075334331383        0.19794975263627       -1.32657193720624
H            0.30354925869800        0.49972385796905       -2.03049654952098
H           -2.79719193138404       -0.14121207486152        1.26048604278022
H           -4.26145471957602        1.05954239386839        2.25650337463042
H           -6.18570285266486        1.12696097117213        3.80821236166864
H           -7.61974889550323       -2.13189655196386        3.51955483524033
H           -7.60169312070780       -3.51820871376642        5.55354112916048
H           -8.59462559485894       -2.65219916689800        7.62972392885994
H           -9.56469659601472       -0.39670604350180        7.67754981757359
H          -12.04793679278638        0.26152153802075        5.91072705246380
H          -13.73563909275271        0.50915080006685        7.68229134988848
H          -13.32549140095803        2.04147829020600        9.56096974034837
H          -11.22739001844035        3.31864576735083        9.66137869981564
H           -9.55157606717118        3.06548616970334        7.89031138794491
H           -9.32018184840546        4.07399921053944        4.94106378970366
H           -7.39000520281938        5.54297143917811        5.29019502931862
H           -5.38542613614335        4.68926602856711        6.42984387669710
H           -5.33046032814186        2.36373451422650        7.22447811076014
H           -7.26545266775620        0.90298656428301        6.87439871325612
H          -11.74412397075083        3.13616998584617        5.06016945412277
H          -12.55777719308953        3.83590193446880        2.85284389657928
H          -11.50382602783873        2.94561137883134        0.81789909566351
H           -9.66943735155038        1.32751360459617        1.00056340274270
H           -8.53664418881457       -0.57918379061410        0.72012746983052
H           -1.56879371613787        0.51277454844355       -4.31370405177287
H           -1.96389768846564        0.83257058541624       -6.72159277804407
H           -4.26517834333915        0.95518907300516       -7.58024988812734
H           -6.16604381152485        0.75885986689360       -6.03210492941946
H           -5.75807613529815        0.44215509667687       -3.62493320061732
H           -1.01822293630616       -1.07647478343156        1.69581785228333
H            1.30465172761202       -1.36255222611834        2.40055425237495
