95
 energy: -21.261264670786 gnorm: 0.000691986139 xtb: 6.5.0 (97a52f5)
C           -0.66125356696184        1.63895491399711        0.18659758636579
C            0.22804051499713        0.72088823368429        0.68859898318148
C           -0.14297889396068       -0.59701000937069        0.68671817514947
C           -1.38927121024730       -0.96575274082418        0.18783213778533
C           -1.78511723188591       -2.39392468657092        0.19176332405833
C           -1.37071212613543       -3.21237061921647        1.23132890448083
C           -1.70306252306042       -4.55432007120644        1.24166155810923
C           -1.25829032849270       -5.46227441508661        2.32051125804966
C           -1.38007081380559       -5.09207907182462        3.66546317214764
C           -0.98056453676993       -5.93150324555417        4.68215573568796
C           -0.43795581316103       -7.16825360946746        4.35886533614503
C           -0.30163812549429       -7.54282914154770        3.01951097176046
C           -0.71067883735771       -6.70761307455039        2.00711696883236
C            0.34348489025493       -8.92449499697201        2.94870738505414
C           -0.53132170374480       -9.94301566292189        2.21952376542495
C           -1.81857186669259      -10.36129020962941        2.48282000981492
C           -2.39441940814504      -11.30794865594237        1.65577974263078
C           -1.69194210253512      -11.82869154150108        0.58053794602211
C           -0.40300448314059      -11.41378797305441        0.31158337811329
C            0.18068701361782      -10.46412066162234        1.13759043526138
C            1.51497194610775       -9.84395244474659        1.08908771496197
C            2.56578899576627      -10.03485579578657        0.20363554934310
C            3.72819441954050       -9.31236144830182        0.38400437306247
C            3.84705083598033       -8.41009649528656        1.42930298019929
C            2.80307330416468       -8.21406873627070        2.31448273906815
C            1.63958690097455       -8.93311397198258        2.13998867395193
C            0.56253224228209       -9.28023493527728        4.41703688642249
C            1.12055385477818      -10.40393372868359        4.97905376917081
C            1.19515250321529      -10.51367259105953        6.36873915981133
C            1.81827124517782      -11.70521601167201        6.98710589170038
C            3.08072445033933      -12.13095257568585        6.61792818197638
C            3.65159723828923      -13.24122088070990        7.21969712963438
C            5.02220613365346      -13.65310611005701        6.83439957544408
C            5.97094327543793      -12.67988003092757        6.53318450760140
C            7.24143635978359      -13.05100944378395        6.18318145331472
C            7.53022566958607      -14.39297491747463        6.14446521340987
C            6.53743957174822      -15.28941546968798        6.45819714245976
N            5.30286154610111      -14.96077291671516        6.79906851125679
N            3.01223714510903      -13.96410174421408        8.14801571459243
C            1.78129962377421      -13.57124507591966        8.50071937385571
C            1.05710269568993      -14.37863998397878        9.51040008312142
C           -0.32502036404905      -14.51764807304098        9.41907246981516
C           -0.99804214240184      -15.26612822637238       10.34723908030202
C           -0.26692133719000      -15.85990807008073       11.34657685543635
C            1.09467007149842      -15.67789024239771       11.36241873484671
N            1.77089111561872      -14.96188225685185       10.48012786562297
C            1.17291540640405      -12.45035345187926        7.95656657407964
C            0.69149959504235       -9.47555919278828        7.16198261778322
C            0.14187541615987       -8.34368792971033        6.60104577180962
C            0.07940998004156       -8.24148098262914        5.21744571689695
C           -2.46832639677219       -5.00876524533850        0.18380883170161
C           -2.87838060993788       -4.13762369227642       -0.81324914424313
C           -3.72978732107771       -4.64450811170630       -1.91524960501293
C           -4.67778327097284       -5.62954611511316       -1.65228307583745
C           -5.47005255665644       -6.10156181218506       -2.66416482527424
C           -5.29268037726269       -5.57189675575994       -3.91862473286008
C           -4.33753443841922       -4.59994651054319       -4.09362696663070
N           -3.55886250862385       -4.12510407399133       -3.13618992179288
N           -2.53675400281628       -2.84277297300721       -0.82176761686852
N           -2.25401033194195       -0.07289355940246       -0.30732897378552
C           -1.86833478577312        1.19179625086200       -0.29345059733235
H           -0.41518312120432        2.68799051867223        0.16602423307360
H            1.18892199110295        1.02776782743517        1.06856835791451
H            0.53332657213285       -1.35069370485367        1.05053563788095
H           -0.78648424163685       -2.80756896613348        2.03704773730513
H           -1.80931186358878       -4.13365583099394        3.90072303751025
H           -1.08045375441791       -5.64296044287539        5.71348746750575
H           -0.59373383556325       -7.00890932428439        0.98249038366193
H           -2.35355968741826       -9.94937509571839        3.32035023217934
H           -3.39982683959345      -11.64358724352144        1.85002640724001
H           -2.15698732211601      -12.56573565295259       -0.05327626240440
H            0.14819117335197      -11.81256244740465       -0.52159989952794
H            2.46581038552237      -10.73707871413391       -0.60501419394428
H            4.55246682058916       -9.45213529380213       -0.29589049730552
H            4.76213240990259       -7.85490147456269        1.55414277517034
H            2.88272759617215       -7.51577848838825        3.12895798540553
H            1.48984760970801      -11.19336968850783        4.35068699219276
H            3.61634944756030      -11.59302626423940        5.85733745478024
H            5.70898079461432      -11.63827367004963        6.59916953011577
H            7.99297781748202      -12.31397830264147        5.95117158158744
H            8.51657313166217      -14.73503799801029        5.87694494484371
H            6.75896059343454      -16.34569602339756        6.43261280124346
H           -0.85737278935257      -14.05633688078546        8.60572995766002
H           -2.06750499041077      -15.38937234296623       10.29362860561770
H           -0.75104935066688      -16.45846007125262       12.10078535778789
H            1.67598604116155      -16.14531899807070       12.14282947075633
H            0.19453811530221      -12.15202556685269        8.28546515183247
H            0.75597225084871       -9.56627284759992        8.23243510339869
H           -0.23492025725008       -7.54509320234978        7.21516513814803
H           -2.74248837157196       -6.04674576511161        0.13937911014735
H           -4.80104914827279       -6.00035808725647       -0.64972281337922
H           -6.21293173418180       -6.86089849879475       -2.48148761464162
H           -5.89324321476644       -5.90962329431029       -4.74730890307749
H           -4.19523496139285       -4.17796148863180       -5.07705837805414
H           -2.57001721266447        1.90764689601416       -0.69430734970553
