62
 energy: -13.914339468075 gnorm: 0.000326834993 xtb: 6.5.0 (97a52f5)
C            0.20381909354934        1.38860144800178       -0.21303111110356
C            0.96667257753176        0.40115826092474        0.36037293940684
C            0.44649320835124       -0.86450765502883        0.40440953498093
C           -0.81852390467002       -1.11329429618698       -0.12075297475183
C           -1.37295410092127       -2.48739134888356       -0.06836728288453
C           -1.10094329252085       -3.28961996821809        1.03052062253088
C           -1.57595040905075       -4.58842955812565        1.09291413089043
C           -1.28345451483084       -5.46172486505529        2.25423498547487
C           -1.65263318213129       -5.04695294758924        3.53604997045587
C           -1.39397291044669       -5.81194726754134        4.64555385629424
C           -0.73640621165352       -7.04034891971040        4.53139982302413
C           -0.43822496754869       -7.84687876713648        5.66787013318095
C            0.22199053673618       -9.02062677944672        5.53967594275888
C            0.64502656124310       -9.50519824959243        4.26676341708904
C            1.36648324110642      -10.71581518807977        4.12119990873205
C            1.71501943484270      -11.55791566146839        5.29037576957404
C            0.75246999744562      -12.10731807266515        6.12776672555971
C            1.14816497008382      -12.87818939143075        7.18936452581055
N            2.40521856566765      -13.15008925684874        7.50377762737451
C            3.34519038638632      -12.62572478062823        6.70640243951606
C            4.76773270995283      -12.89142184974855        7.02946133868178
C            5.71487114002628      -11.89206886358873        6.82428253809373
C            7.03083178153923      -12.12876854817267        7.11855142970513
C            7.36523734539855      -13.36508546753977        7.61399534513294
C            6.36933304852287      -14.29473272409228        7.79153041486618
N            5.09146132664746      -14.09473535467196        7.51663392767399
C            3.03267256910705      -11.84611183614583        5.60215257481458
C            1.78736223246081      -11.10224147912609        2.84647274743172
C            1.50855226877900      -10.34844438463261        1.73420748407186
C            0.79693382364501       -9.14987097005290        1.84098234385692
C            0.51385234918862       -8.33508102119361        0.70661111544700
C           -0.15381100246276       -7.16545766930978        0.83376754161089
C           -0.60867941659477       -6.69827208010410        2.10226532142808
C           -0.33682194788188       -7.48629333972804        3.24895880049805
C            0.36339136803018       -8.72261016785216        3.11874896027386
C           -2.34236669420390       -5.01307806513343        0.01505171395447
C           -2.57625646106435       -4.14995564693424       -1.02319480577160
N           -2.11720017117097       -2.91039007176791       -1.09876254247555
N           -1.56054124083506       -0.15301174924056       -0.68413463445337
C           -1.03275416151362        1.05905473535204       -0.71283154133205
H            0.56992656593501        2.40047324365901       -0.27220280611818
H            1.94504958281452        0.61492705541372        0.75897236260569
H            1.02079376819835       -1.67252608917526        0.82307450386329
H           -0.51827893889098       -2.90472562450908        1.84720487083269
H           -2.15996309835715       -4.10364783898307        3.64330515396214
H           -1.69262413646434       -5.46836206832730        5.62077796872576
H           -0.74250174650038       -7.49998736629682        6.64014914597372
H            0.45157581273741       -9.60182909694338        6.41458873611036
H           -0.29070425061087      -11.93524734687582        5.92599009633674
H            0.39504986488697      -13.30596266295687        7.83369167238555
H            5.40577079687365      -10.92959487585894        6.45540726569237
H            7.77982217908508      -11.36794775587332        6.97036278975900
H            8.38769345903449      -13.59928165342500        7.86130551113678
H            6.62553544185893      -15.26788522486112        8.18240732884454
H            3.81623023588171      -11.46134342589342        4.97555432958469
H            2.33888949143173      -12.02115219009328        2.74569358378359
H            1.84377277894539      -10.67207818153162        0.76406108602961
H            0.85148331329305       -8.66371693148165       -0.26098341342523
H           -0.33669713950880       -6.55853004510989       -0.03465472499072
H           -2.75646020284855       -6.00659402940757        0.01408521886460
H           -3.17750000647601       -4.48427910034702       -1.85511024088916
H           -1.63632971806833        1.83045102726367       -1.16684149650334
