44
 energy: -9.833386934515 gnorm: 0.000388417721 xtb: 6.5.0 (97a52f5)
C            0.44023549876224        1.32098241844821       -0.12380008306990
C            1.19395441830576        0.28284933736252        0.36627452159793
C            0.61657361087868       -0.95746760270589        0.41953010626537
C           -0.69477093021458       -1.13179730672753       -0.01416066172223
C           -1.30930994545246       -2.48020749877946        0.04489069473919
C           -1.00214501878996       -3.32163050251405        1.10475984765539
C           -1.54009762958644       -4.59504063088555        1.17628538399910
C           -1.21159944188212       -5.50951159934971        2.29553593710018
C           -1.44581280490534       -5.09843226753466        3.60991427587423
C           -1.15468814574712       -5.90367733378677        4.68323210208534
C           -0.59971307161852       -7.17218048009631        4.49713876493694
C           -0.28155322908636       -8.03026593135485        5.59434545022346
C            0.26671157552616       -9.24979866871284        5.39536604592146
C            0.55092297174790       -9.72698051525261        4.07784132848115
C            1.12309788517863      -10.97893053094100        3.84575825598430
C            1.38901396121310      -11.40649563409089        2.56152212992223
C            1.09660221107001      -10.60550384938156        1.47758696063163
C            0.52423770443017       -9.34465746818318        1.65550668732896
C            0.21813045309929       -8.48233945748305        0.55842990012498
C           -0.33294191498833       -7.26449705041770        0.75886486355706
C           -0.64205617649481       -6.78617440445431        2.06927390186819
C           -0.33811608824335       -7.61443792194752        3.17812427914833
C            0.24514668349060       -8.89928225303576        2.96979819180408
C           -2.40461281886982       -4.95277468579870        0.14971444063924
C           -2.66191344832594       -4.05607354156142       -0.85418678217979
N           -2.14257355866225       -2.84116136469442       -0.93998903930304
N           -1.42946060551798       -0.12167239109315       -0.49419179406808
C           -0.84550172973464        1.06413512912286       -0.53460201669209
H            0.85073592002435        2.31541945115546       -0.18770438581644
H            2.20906345782951        0.43898859820289        0.69337188773462
H            1.17935067058041       -1.80352701826540        0.77368827604489
H           -0.34333703964179       -2.98606010754843        1.88446373290080
H           -1.87648852908605       -4.12540006277632        3.77280335262353
H           -1.35174915115911       -5.56203137470900        5.68467671785786
H           -0.48570263753231       -7.68459464937152        6.59282834851683
H            0.50190104384595       -9.88235322126066        6.23356540651773
H            1.35836605340737      -11.60999432328848        4.68518330027299
H            1.83195354186864      -12.37616192884305        2.40343000037385
H            1.30992821766851      -10.94680655119571        0.47946471826820
H            0.44036992889656       -8.82011234709344       -0.43889195944898
H           -0.53729508238144       -6.62704506295067       -0.08243073126223
H           -2.87329458865365       -5.92173309023630        0.16098625762066
H           -3.33565753501997       -4.34110477890476       -1.64795984621866
H           -1.44147468623451        1.87537047293615       -0.92445876884266
