41
 energy: -7.486513987546 gnorm: 0.000773026403 xtb: 6.5.0 (97a52f5)
C            1.34060929117660       -0.31358486843506        0.17975010132964
C            0.92271658649496        0.91668922083231       -0.28127470556847
C           -0.42055655937308        1.17952198680042       -0.42861180044923
C           -1.37382588439538        0.21404389863979       -0.11501627469376
C           -2.81968528499869        0.49603607313188       -0.26184953640292
C           -3.72420787015627        0.10845905961596        0.70991510083636
C           -5.07272629837415        0.38094821442608        0.56471722037753
C           -6.05073913194312       -0.02618313110406        1.58954054908628
C           -7.37509466699595       -0.22093803082775        1.21897401012402
C           -8.31967344540776       -0.59914905265016        2.14593445095340
C           -7.95632257271837       -0.78333464942526        3.46297072894283
C           -6.64808711355588       -0.58400433058058        3.85041762864666
C           -5.70139688644344       -0.20670448413176        2.92479125036100
O           -5.55516243426290        1.02054367048121       -0.53367579263136
C           -4.67223624274363        1.39958230914980       -1.49586445271191
C           -5.22359482292975        2.09833212013397       -2.67103843167074
C           -6.43175698038827        2.77233532996261       -2.54721125335649
C           -6.98716336144438        3.42941202686373       -3.62148706505390
C           -6.34532351985619        3.41919548168600       -4.84158299198396
C           -5.14963551836619        2.74746870706783       -4.98494838905470
C           -4.59175263408570        2.09009165777561       -3.91147493662700
C           -3.31607830650232        1.15317886054105       -1.37323610653403
C           -0.93274523969910       -1.02293584383979        0.34815841561494
C            0.41122779423203       -1.28238286353460        0.49337333302420
H            2.39251913705923       -0.51738290806330        0.29519171920040
H            1.64897530494474        1.67475920421523       -0.52455254463558
H           -0.74574080271396        2.14510885523108       -0.77474922634591
H           -3.37098662242814       -0.41285888407809        1.57939033877019
H           -7.64909447903493       -0.07018686658810        0.18886291748607
H           -9.34245841366074       -0.75031544899924        1.84222074505341
H           -8.69535607039113       -1.07894058261779        4.18950147198641
H           -6.36628804963639       -0.72022525289992        4.88164278398106
H           -4.68807495148310       -0.02983591102634        3.23890394059744
H           -6.92730187480813        2.76923806951527       -1.59144166189678
H           -7.92395920657153        3.94980239377357       -3.50833679943094
H           -6.77976150285287        3.93220637609516       -5.68392004564168
H           -4.65257105480807        2.73317126268624       -5.94110324122084
H           -3.67103104444620        1.54865294083868       -4.03736736084697
H           -2.63855373958888        1.47322693686401       -2.14198339301676
H           -1.65676439183465       -1.78434455581460        0.58083988073047
H            0.73712886499003       -2.24484699171089        0.85208942267047
