101
 energy: -20.193491175674 gnorm: 0.000832708893 xtb: 6.5.0 (97a52f5)
C            2.70208654456949       -0.62236813962052        1.07346624176254
C            4.00052175068971        0.20626299389830        1.07999900393077
C            5.12264452424736       -0.65848287635822        1.68749617211081
C            4.39311818392626        0.56750262404577       -0.36445479254859
C            3.77823634189552        1.49761881045938        1.88306633657211
C            2.76776288557590        2.39081803343643        1.48434280476070
C            2.51729264569323        3.56190542768684        2.15552302941682
C            3.29390959322430        3.88734806027325        3.26760963072687
C            4.29655988857479        2.99987983525438        3.68466516514839
C            4.53901701773886        1.81256168561288        2.99287284434453
C            4.88535008132403        3.55393450850512        4.87469941305088
C            5.89318774006680        3.08038347287121        5.71590733218678
C            6.24191511711818        3.80056449647777        6.84065048793517
C            7.33229555723509        3.26710066846280        7.78236734416256
C            6.82802034312794        1.97781829456227        8.45425012526031
C            8.61195982790817        2.96904537913844        6.97794655715444
C            7.68399705577134        4.28835013732221        8.88142660011287
C            5.54485273063528        4.98828208295429        7.11311047947102
C            4.55753306276159        5.47002164073576        6.29096920490241
C            4.21766922234149        4.75905261692834        5.14898750657461
N            3.25452703585015        4.99786209945020        4.14560192968323
C            2.38591920599074        6.13053122507988        3.93011018029536
C            2.19946093467939        6.56202284796737        2.62384334543860
C            1.14829439916614        7.38156574983553        2.28807791215957
C            0.24121414946396        7.75873984655260        3.25473515556530
C            0.41739062481249        7.40983998349383        4.58470117831759
C            1.55566611990519        6.67151256265950        4.95427484904228
O            1.91221413471885        6.49536002531648        6.29157349044436
C            1.09752157941741        7.02332579032448        7.29361221944701
C            1.57633514791133        7.06062620094121        8.63266802830310
C            3.02245987760500        6.99156148975258        8.94439656481902
N            3.38213103682561        6.33331218736982       10.03651536007336
C            4.67339987937063        6.40174920940510       10.32018487578927
C            5.14690068059356        5.66987656151578       11.50775316556910
C            6.47439669980283        5.76267352616062       11.91637413716676
C            6.92134834405567        5.06774325614421       13.01818789448584
C            6.05000305571257        4.26864231052519       13.73218349187962
C            4.72921205678662        4.16730545701220       13.34094028150794
C            4.28117028508578        4.86144531265017       12.23885298428558
N            5.57930202763278        7.06745438932988        9.61970534365028
C            5.10444070773284        7.68851793672107        8.55129837770739
C            6.07377130368422        8.36584130774663        7.67321133197584
C            5.66840297793466        8.91374218658311        6.45929546032679
C            6.58164577748135        9.50390159102410        5.61468969248939
C            7.91593217653435        9.55748801476528        5.96812082863978
C            8.33409029737087        9.01717208295401        7.16873775136800
C            7.42187145763852        8.42518850025311        8.01388286989674
N            3.83734897252745        7.69332804641752        8.17071982474209
C            0.68545068714225        7.32041315504884        9.66791615376148
C           -0.62605366970271        7.63020128429110        9.40536181730291
C           -1.05616837473638        7.73680795714981        8.09700752532685
C           -0.21098790943593        7.46848283109704        7.03373149126519
C           -0.67716675246147        7.73790061787467        5.60378203594233
C           -1.05400614257459        9.23053718375693        5.49076668922926
C           -1.90353350217320        6.85765485313068        5.29647940032806
H            2.83998688197681       -1.55772711011310        0.53208992844963
H            1.88701048707726       -0.08032915264802        0.59662844776287
H            2.39462480310065       -0.86334449279348        2.09049417728192
H            5.26290043843769       -1.57122707295640        1.10923169687140
H            4.88308098346339       -0.94983419338706        2.70959479834699
H            6.07166658585360       -0.12353745066339        1.69243660524167
H            4.57280590878470       -0.32967386130845       -0.95587281639972
H            5.30239363087453        1.16755642165133       -0.37682060895264
H            3.60822909624717        1.13962668364316       -0.85684387952898
H            2.16991859765495        2.14572864521611        0.62391051611335
H            1.72123567433555        4.21511416400566        1.84773396713974
H            5.31384403435554        1.15788088279693        3.34378941727924
H            6.37644547084981        2.14916684914066        5.48642570241033
H            6.60273190395871        1.21138976647606        7.71384686243692
H            5.91876254952657        2.17117615963267        9.02260023882538
H            7.57474233109009        1.57601122212700        9.13831404039789
H            8.44204378043160        2.19709113243115        6.22917281834036
H            9.41133866591020        2.62353814168799        7.63264802050545
H            8.96039677466549        3.86457600470765        6.46465359381205
H            6.82739778836997        4.47898238643751        9.52578166182160
H            8.00895725782126        5.23331516005633        8.44770230110415
H            8.49082120870826        3.91747649816700        9.51250737457049
H            5.77413940322076        5.52463280252652        8.01272379489822
H            3.99453677228248        6.34920331176566        6.53774178561610
H            2.87416970557967        6.21230293200751        1.86119124060980
H            1.00523823654744        7.68473190621998        1.26375273377431
H           -0.62600837373271        8.32608261492662        2.96608031990195
H            7.14760518591258        6.38716240332255       11.35558497698396
H            7.95205751238531        5.14708151923228       13.32309196729125
H            6.40013976141231        3.72493991227149       14.59443558544645
H            4.04858711183202        3.54432706681209       13.89803104829620
H            3.25442580360244        4.78645147621396       11.92671411381057
H            4.62999449420601        8.85235060435235        6.18446032743132
H            6.25546460236028        9.92038420125220        4.67555283798209
H            8.63082600137626       10.01748612112483        5.30566903623267
H            9.37581569250531        9.05517024519603        7.44273128909875
H            7.74070414229024        7.99227849323741        8.94577118510922
H            1.05187553861811        7.31679140084486       10.68004541070532
H           -1.30508447022561        7.83808198252221       10.21605754041682
H           -2.06879923771929        8.04409707542367        7.90123919323728
H           -0.17973768750678        9.85705250089789        5.66406717520049
H           -1.81155319893637        9.50335379996801        6.22376554849383
H           -1.45426498877343        9.47220388159366        4.50791115307652
H           -1.64988926677689        5.80309033287599        5.39915183358582
H           -2.25667043693228        7.02012823065214        4.27893728792000
H           -2.72852255452171        7.07408106813822        5.97333262627845
