42
 energy: -8.904163236941 gnorm: 0.000230747962 xtb: 6.5.0 (97a52f5)
C            1.32181494867947       -0.44059693064109        0.01080635202960
C            0.96129821353977        0.86842533153471       -0.23843624824327
C           -0.37016403608048        1.22231745028543       -0.28284433784961
C           -1.36785533689153        0.27126993167708       -0.07811791104678
C           -2.79973271172918        0.65226281809413       -0.11995143891727
C           -3.28085170662182        1.50554060021874       -1.10750829635864
C           -4.61929307518947        1.88118611470410       -1.15391567618718
C           -5.11339602589205        2.80087196863603       -2.20630439042948
C           -4.73469639043106        2.63483573149114       -3.53696041183806
C           -5.19635456995278        3.49152106017992       -4.51325756846306
C           -6.04262411463313        4.53006329404514       -4.17971669865569
C           -6.42719606712335        4.71011832312335       -2.86611511592397
C           -5.96834004465283        3.85419412524024       -1.88799974358486
C           -5.48336647524392        1.38105362081822       -0.18549899883885
C           -5.03577317037341        0.52520188276450        0.81525560550770
C           -5.96905436708063        0.00684044756118        1.84364867530527
C           -7.23132910453948       -0.46570242942259        1.49017329907609
C           -8.09648370373533       -0.94950616230063        2.44806213536468
C           -7.71885756411708       -0.96901436534317        3.77582661261857
C           -6.47268011639623       -0.50300854972972        4.14421973155876
C           -5.60490852206524       -0.01993217230413        3.18839603296538
C           -3.69094534991788        0.17095895376607        0.83325998474039
C           -0.98555954756095       -1.04513099780684        0.17210772592667
C            0.34671542548846       -1.39630663360378        0.21511358293480
H            2.36337245681126       -0.71605705119139        0.04606537591180
H            1.72211183793945        1.61564173434825       -0.39585590797073
H           -0.65150170489702        2.24516565190242       -0.46565558420747
H           -2.60268030962534        1.88565444392121       -1.84975931760596
H           -4.08200622505343        1.81952082233468       -3.79786022717262
H           -4.89741711816229        3.34940898090952       -5.53912248690402
H           -6.40282266708563        5.19950891375919       -4.94395876742856
H           -7.08643956817481        5.52178532569017       -2.60436781209082
H           -6.26015994131322        3.99958187718947       -0.86203424389129
H           -6.51985891106536        1.66463478916267       -0.20942179354227
H           -7.52171867074048       -0.45862804523748        0.45362328031214
H           -9.06875535803183       -1.31484622674866        2.15966739288163
H           -8.39601833645553       -1.34829877279985        4.52392983987343
H           -6.17811569648215       -0.51557557235381        5.18104535504882
H           -4.63666665306322        0.35237103935772        3.47612489499495
H           -3.33159183950987       -0.48705956941531        1.60343485583820
H           -1.74612831872116       -1.79192966830132        0.32248967114610
H            0.62764043615282       -2.41900208551437        0.40771257311650
