88
 energy: -19.278208998453 gnorm: 0.000304062744 xtb: 6.5.0 (97a52f5)
C            0.77884872373768        0.67722237712333        0.02868040000830
C            0.17755679363771        1.80859886889023        0.54333499184840
C           -1.18590138206533        1.84100615205572        0.73418770416202
C           -1.97753513439565        0.73698892576896        0.41736234575709
C           -3.44465159758453        0.77852498126733        0.61884158977226
C           -4.16396909589338        1.84971843053121        0.11236782137489
C           -5.54041887218614        1.94833501295942        0.22949496420429
C           -6.17041787156340        3.14884473436776       -0.30305447629462
N           -7.46838695472577        3.46670017398634       -0.23955517156849
N           -7.63921339567631        4.62275977120151       -0.80517405374904
C           -6.44881105165961        5.05849000978808       -1.22960938774380
C           -6.21842674307275        6.33386981473651       -1.89196433337380
C           -7.26895232764620        7.21527832153100       -2.14009389678229
C           -7.03740011399156        8.42740814331376       -2.73912735913249
C           -5.74397810650297        8.80574180233129       -3.10957769514893
N           -5.49324602008872       10.09497074995856       -3.70541554420463
C           -5.74506147286261       11.29071160138012       -2.97825048202004
C           -6.22566948006239       11.25837315600082       -1.67680597932532
C           -6.45624356624079       12.42136508572815       -0.97141377395430
C           -6.20333266558322       13.64344838266426       -1.55783735783282
C           -5.71315196472458       13.70052217108410       -2.84466448045410
C           -5.46997260506508       12.53960893382556       -3.57273443205293
O           -4.95144931359861       12.64886249388672       -4.86019214991253
C           -4.69640557530687       11.47468537367719       -5.56366033114373
C           -4.17727682737521       11.56206366330622       -6.85191748744345
C           -3.92668572688310       10.42925569999433       -7.59575975036165
C           -4.19547440267243        9.18464180082037       -7.06632665242592
C           -4.70787869913240        9.07513012209463       -5.78997452172815
C           -4.95607750678086       10.20067456668913       -5.01729101826113
C           -4.69508381172649        7.91474311741371       -2.86678442466006
C           -4.92940142602073        6.70224559011273       -2.26952674350290
O           -5.48413390465034        4.14359289388274       -0.93615910999229
C           -6.25306840020902        0.91793605849352        0.88282342516963
C           -7.73067416340413        0.96839753434421        1.02821501256613
C           -8.56658847133281        0.73621245631027       -0.06568860403280
C           -9.93481040917192        0.73314727702843        0.08333094225532
C          -10.49747407275695        0.95999598157388        1.32397659598721
C           -9.68666243195102        1.18946432505547        2.41808749691768
C           -8.31792650473496        1.19244637643649        2.27463624659500
C           -5.54142627736152       -0.17279340445586        1.42938930633521
C           -6.27661420509527       -1.23008633982184        2.17012830404091
C           -7.20333244009510       -2.04779905863004        1.52330404519707
C           -7.88604608273423       -3.02213958720177        2.21591407132303
C           -7.65763398575554       -3.20143338528037        3.56583914249114
C           -6.74314590674408       -2.40223960469707        4.22274009080129
C           -6.05936591159577       -1.42592296602513        3.53409977112474
C           -4.13678193715549       -0.24792543733058        1.30300296232028
C           -3.39482508285239       -1.38430003863852        1.90209587777615
C           -3.68429114383872       -2.70207197236721        1.54258659427576
C           -2.99697803391477       -3.75356846380537        2.10513736337699
C           -2.00562268592886       -3.51438901447779        3.03622636413647
C           -1.70356939277500       -2.21819687323153        3.40445843265832
C           -2.38978939154554       -1.16379598586738        2.84593760139944
C           -1.35237440048124       -0.39371181937050       -0.10894806645726
C            0.01113549222156       -0.42283868287064       -0.29779356772560
H            1.84619391162188        0.65308343822288       -0.11871385977700
H            0.77661466313807        2.66770373922993        0.79750283090751
H           -1.65480991163182        2.71948496212736        1.14282201912719
H           -3.63827769326873        2.63684123695537       -0.39766437918769
H           -8.26522377024962        6.93126529789358       -1.84974183426398
H           -7.85035588083785        9.10487206104113       -2.93369908226636
H           -6.41127318574924       10.30720773366523       -1.21174108159522
H           -6.83221787813645       12.37447712795791        0.03739157968886
H           -6.38353205883997       14.55301723115234       -1.00867084707079
H           -5.50309311609530       14.64775013804837       -3.30859772138795
H           -3.97932477834086       12.53819536964436       -7.25767528607665
H           -3.52549544350925       10.51675964789084       -8.59213130923589
H           -4.00637036088297        8.29831347783748       -7.64928764316827
H           -4.92849885387526        8.10413670039170       -5.38465241787710
H           -3.69593306439683        8.20407388453542       -3.14185475350593
H           -4.11866093561070        6.02135204826621       -2.07562107448758
H           -8.12277011128136        0.55549287642361       -1.02946850318454
H          -10.56808955363343        0.55253950927130       -0.76978160980368
H          -11.56908329111247        0.95651984996288        1.43861235369757
H          -10.12612609230809        1.36395213315193        3.38654002075898
H           -7.68142818695555        1.36275312462934        3.12576722335561
H           -7.37746539525543       -1.90564502660333        0.47083192272570
H           -8.60054658939699       -3.64529665228513        1.70353108993543
H           -8.19288013556709       -3.96473058952753        4.10655094305344
H           -6.56413502088656       -2.54266442852342        5.27613185567850
H           -5.34613986626256       -0.80000890047762        4.04198550597336
H           -4.45650385802761       -2.88527912055871        0.81574242903013
H           -3.23362450393872       -4.76523625252821        1.81886223527906
H           -1.46816901591825       -4.33880698708732        3.47538684936257
H           -0.92907150437441       -2.03154019743130        4.13023168904694
H           -2.15883802385472       -0.15235192961785        3.13235173770274
H           -1.95290205750944       -1.24900597678261       -0.36569112950289
H            0.47963950067250       -1.30606582450588       -0.70018836546727
