74
 energy: -16.447474869153 gnorm: 0.000183053440 xtb: 6.5.0 (97a52f5)
C            1.04212020188622        1.29746399634302       -0.12616770774471
C            1.01150793169931        2.52516117854700       -0.75778856801167
C           -0.17613411372147        3.02046663385274       -1.25006337663145
C           -1.36086108308971        2.29715972332951       -1.11308326089467
C           -2.64642382360943        2.81586649525927       -1.64023536968264
C           -3.34475092458116        2.07019376832921       -2.54543311946635
C           -4.59652543556553        2.47638745797700       -3.08119028688811
C           -5.28313699749185        1.67701809307185       -4.01702011245364
C           -4.69721513512042        0.39282232036952       -4.47971129188252
C           -4.32128862455041        0.21851933556054       -5.81519360283797
C           -3.76344487394375       -0.96504489871640       -6.24203369727719
C           -3.56686573226891       -2.00067311365880       -5.34930585459410
C           -3.93260922158084       -1.84984205329799       -4.02572395852110
C           -4.49270296281423       -0.66919568980339       -3.59340001191928
C           -6.54603503230224        2.11857399676668       -4.52573961080259
C           -7.28972467161265        1.33353711000846       -5.42058810049307
C           -8.51203244356140        1.74969086543259       -5.88582246733598
C           -9.03851771578821        2.96250622171831       -5.48472337358488
C           -8.34788287609193        3.79266578812977       -4.60551643670488
C           -8.88723906504682        5.06541487502366       -4.17421097670818
C          -10.20422214606199        5.55269095578153       -4.65184692027957
C          -10.45347348727091        5.75659127895621       -6.00892509548651
C          -11.68117985751034        6.21126280247566       -6.43807657334262
C          -12.68092898190523        6.47664390470384       -5.52307718507737
C          -12.44901820810720        6.28948782844984       -4.17481995518474
C          -11.22299584129098        5.83480194457092       -3.74174338522189
C           -8.17906027700713        5.82145339025470       -3.28543924714422
C           -6.92686839532850        5.41600535208582       -2.74979777762794
C           -6.22597925051220        6.22894668676668       -1.83630581954759
C           -6.77374522602145        7.54919923552028       -1.43246846656757
C           -6.09761698500932        8.73104225596015       -1.75095686755897
C           -6.61128135735670        9.95640548425348       -1.39203266807533
C           -7.80968201596579       10.03275832703186       -0.70937797363438
C           -8.49298726726250        8.87727267718750       -0.38328034790531
C           -7.98306589746706        7.64887958859415       -0.73768067609757
C           -4.97370140434014        5.77673648867139       -1.31064767352045
C           -4.26675504348144        6.52562217797657       -0.35694432049936
C           -3.07862474637108        6.07611147158303        0.16255096168615
C           -2.54504600834172        4.87027015442178       -0.24996252828262
C           -3.19186803641211        4.08273009588908       -1.19894131147572
C           -4.43305041385173        4.52920131968792       -1.72938394776410
C           -5.13979317198620        3.72634842072076       -2.66374687859937
C           -6.38092555313604        4.16847923814164       -3.17135986069197
C           -7.08898158627023        3.36385024485331       -4.10330843039310
C           -1.30868727408518        1.05495472802732       -0.48061740928847
C           -0.11910016802969        0.56275331052087        0.00932751817372
H            1.97199828651383        0.91184585847078        0.25916603579635
H            1.91907160316952        3.09621580067567       -0.86736127922183
H           -0.20029724433863        3.97104992504478       -1.75491490773222
H           -2.92405382685719        1.13626614315081       -2.86821009651355
H           -4.46566646945920        1.03165125461001       -6.50587815155153
H           -3.47663714828972       -1.08289526485379       -7.27437702067509
H           -3.12793087887859       -2.92592325587234       -5.68551717758187
H           -3.77934282293188       -2.65877536243377       -3.33005763882773
H           -4.78453599307308       -0.55098472062893       -2.56390660954150
H           -6.89502800059659        0.38322108782131       -5.73346008388033
H           -9.06680288429967        1.12567836918168       -6.56753296064151
H          -10.00277288045397        3.27006724865883       -5.84810118461374
H           -9.66834414143771        5.56065386190899       -6.71900897846498
H          -11.86130929064185        6.36179311062802       -7.49006024274887
H          -13.64107558445628        6.83159049762976       -5.86071155118791
H          -13.22845441550308        6.49839609064322       -3.46014154971868
H          -11.03944313206333        5.68455078892732       -2.69158205772075
H           -8.58945984153486        6.76607921051578       -2.98115478948791
H           -5.16944914412242        8.66862581006137       -2.29285883505829
H           -6.07888197525631       10.85831254177122       -1.64703916519022
H           -8.21128449074077       10.99363088882176       -0.43142273487348
H           -9.42768583664979        8.93796099675716        0.15007528164576
H           -8.51002846175533        6.74657177635032       -0.47856326461205
H           -4.67591533753064        7.46160811393462       -0.02041276433779
H           -2.55820808877773        6.66655513952053        0.89905248796271
H           -1.61926668269333        4.52542259136397        0.17476086407349
H           -2.21662039341258        0.48634094888265       -0.37389293770276
H           -0.09524372431522       -0.39674091890273        0.49995533623337
