40
 energy: -7.451991759920 gnorm: 0.000691574955 xtb: 6.5.0 (97a52f5)
C            0.81950940142439       -0.34072439021325        0.41759480115819
C            0.42992818988309        0.68574707785518       -0.41593400369447
C           -0.90775232355849        0.93248347333294       -0.62385279335727
C           -1.88178845618857        0.16313076120740        0.00040409071528
C           -3.29925577509774        0.46563307889312       -0.25708758462677
C           -4.29166264534155        0.04459226631093        0.60267750949692
C           -5.60448818060310        0.37182697460613        0.30672058108195
C           -5.90875501530818        1.11712358875773       -0.84499095690859
O           -7.26907024113826        1.32948383558102       -0.93546193014842
C           -7.84261168075809        0.72444886176714        0.16426473644761
C           -9.18276912590673        0.64344945525530        0.56101522728298
C           -9.49627313562610       -0.01913428117219        1.71599912292462
C           -8.50462999542793       -0.61363224447676        2.50385326072420
C           -7.18591116974965       -0.55106947701291        2.14103087966919
C           -6.84781597985442        0.11915242837806        0.96279438723408
C           -4.85552813244930        1.52431938417774       -1.69266849137783
C           -5.11812553107770        2.29738032560207       -2.90417256534725
C           -4.06360248238177        2.63171572485095       -3.74494674513673
C           -4.28208449579142        3.36034241216095       -4.89167106816595
C           -5.55872212137321        3.76809315068971       -5.21793841746849
C           -6.61712020834029        3.44422820694802       -4.39518262708905
C           -6.39940343386190        2.71505960415108       -3.24969884731627
O           -3.57371707303507        1.20101564631867       -1.38986426050904
C           -1.47140276527324       -0.87638802708009        0.83154237642545
C           -0.13263835428198       -1.12192713530182        1.03745457167123
H            1.86704089622199       -0.53454893466463        0.58175364732648
H            1.17295666660473        1.29475603215151       -0.90470645692867
H           -1.22227707878635        1.73043333164328       -1.27454890708546
H           -4.06460358216871       -0.50069893868637        1.49860104435986
H           -9.93991901755574        1.10395620508729       -0.04805651105698
H          -10.52637399111395       -0.08471561446205        2.02672697077373
H           -8.78455795791443       -1.12750455642662        3.40870436601162
H           -6.41726978409813       -1.00502098393244        2.74109630843893
H           -3.07165952114865        2.30651866324566       -3.48195467039880
H           -3.45480814920587        3.61162598492015       -5.53530485681897
H           -5.72985647806253        4.33864737569075       -6.11627626095040
H           -7.61513738020328        3.76169680016628       -4.65028757887292
H           -7.22254461192295        2.45702485405414       -2.60733448312374
H           -2.20512584439756       -1.50640297893891        1.30214039420872
H            0.17260656487071       -1.92942794143359        1.68301574043319
