54
 energy: -12.092234695763 gnorm: 0.000227673628 xtb: 6.5.0 (97a52f5)
C            0.64421907679282       -1.02241721664838        0.31725684384701
C            0.64358328286228        0.32197959626773        0.00291064694286
C           -0.54208007872605        0.96489668382174       -0.27712212047557
C           -1.75374069822329        0.27488083158321       -0.24249797685368
C           -3.02826925457037        0.96329843944077       -0.56222242273585
C           -3.79732486000426        0.51040956760985       -1.59472611606738
C           -4.99757745819974        1.16816463393316       -2.00107596167338
C           -5.76452903679628        0.70893587878588       -3.05708407116506
C           -6.93033350755298        1.38425710503075       -3.47207100501891
C           -7.72011861014126        0.92030250295613       -4.53995942332752
C           -8.84663614156045        1.60091079531395       -4.92332020957316
C           -9.22653844373209        2.76636994658775       -4.27411504037568
C           -8.48327351772234        3.28070933591276       -3.21808112371754
C           -8.85766303381574        4.50481969211975       -2.52780990617096
C          -10.00691685829816        5.32099412226007       -2.99021087848066
C          -10.04289469736156        5.83263083150977       -4.28729203489730
C          -11.10100945780460        6.60631969392242       -4.71084137896890
C          -12.14091459722112        6.88865951753033       -3.84763184108805
C          -12.11938907955406        6.39591482805570       -2.55777959613435
C          -11.06300831646267        5.62106427193644       -2.13066431209930
C           -8.12351374019127        4.92221966643654       -1.45568919615707
C           -6.96570945185888        4.22134229102777       -1.00114133405664
C           -6.22088670003352        4.65807451640156        0.07995436219569
C           -5.06092370597979        3.97683038063388        0.50157759954876
C           -4.30245402599300        4.40886422349209        1.60497315428797
C           -3.17693497289816        3.72721264430521        1.98940696909311
C           -2.75537069665831        2.60411020271919        1.29298502744631
C           -3.45599867860408        2.13314324706786        0.18863406140574
C           -4.63709905499254        2.81794309649285       -0.20572538490440
C           -5.40220441598946        2.34729735282169       -1.30229713731236
C           -6.56041250791678        3.04288825219819       -1.70067239471795
C           -7.32530945599368        2.57243709969348       -2.79747483469119
C           -1.73319699350630       -1.08370519258048        0.07060446949623
C           -0.54503545402500       -1.72357746477668        0.34926876930042
H            1.57278735612495       -1.52484311065809        0.53444053059519
H            1.57203702622276        0.86874380066234       -0.02676379797494
H           -0.54491719074747        2.00986304863420       -0.53632547756709
H           -3.47477004628046       -0.35583070263435       -2.14340823332738
H           -5.46271420620190       -0.18109841536897       -3.57864499473681
H           -7.42965587090330        0.01878385753497       -5.05133890678251
H           -9.44401545752878        1.22831144531312       -5.73946908582132
H          -10.11750304572593        3.28189497421747       -4.58583599087718
H           -9.22396466240414        5.62163065902994       -4.95361327579682
H          -11.11489931208991        6.99460938960282       -5.71628066790012
H          -12.96712258737087        7.49617711226591       -4.17948841225763
H          -12.92985972696338        6.61931709904774       -1.88327356560247
H          -11.04382430035177        5.23458274023932       -1.12609717141153
H           -8.40793606962658        5.82727563753478       -0.95027249908352
H           -6.52967681053700        5.54105137630354        0.60936482516248
H           -4.62070397829387        5.28215019202565        2.14783863486336
H           -2.61105819224857        4.06757923555941        2.84130939520922
H           -1.87344892022672        2.07942922326117        1.61494425611018
H           -2.66211040168074       -1.62720660550997        0.09580682991409
H           -0.54349846043793       -2.77380233090657        0.59166140437523
