42
 energy: -8.892657267504 gnorm: 0.000716025787 xtb: 6.5.0 (97a52f5)
C            1.93345855498160       -0.65885947614325        0.11793272883782
C            1.41031387430420        0.37872487801253       -0.62772143333215
C            0.04661675240683        0.49749557090179       -0.77936290898697
C           -0.82641690378973       -0.41775135584213       -0.18779252381071
C           -2.26165286921788       -0.27644986901622       -0.36876265051330
C           -3.25548490806785       -0.92866059266382        0.25955657794369
C           -4.61812681476675       -0.53304882183714       -0.13121593685808
C           -5.79703408139845       -1.03065606447237        0.38769926691618
C           -7.03759370738380       -0.53428444263179       -0.07319746667240
C           -8.26706703052044       -1.01947487600178        0.43103700998836
C           -9.45088245932765       -0.52640380961312       -0.02844327556440
C           -9.47209911540562        0.47306340236651       -1.00966913066577
C           -8.30813888273681        0.96654504026721       -1.51870034124765
C           -7.06128999367331        0.48015419136339       -1.06845944254286
C           -5.83500091171826        0.97658879594677       -1.58168069980631
C           -4.66652052070118        0.47243080339898       -1.11855046573806
P           -2.97605173285073        0.89454671382371       -1.54477894805406
C           -2.82662358316518        2.39167046513254       -0.54711898260686
C           -2.27045735216835        3.50103308889083       -1.14372277563330
C           -2.12672480029223        4.67239519420781       -0.42031277904199
C           -2.54245124388366        4.72433724760377        0.89596037596583
C           -3.10084607837662        3.60920835970948        1.48976367520083
C           -3.24218504952770        2.44061471203612        0.76424465838599
C           -0.27732453064547       -1.45797561359443        0.56538475378119
C            1.08808546621561       -1.57513214470572        0.71328887486087
H            3.00086873329061       -0.75373380288502        0.23470653122542
H            2.06867471964790        1.09634123746754       -1.08988002951543
H           -0.36392486011931        1.30988406555759       -1.35244465868026
H           -3.08269032707623       -1.67471774597186        1.01998677227271
H           -5.77068333536216       -1.79205494941181        1.14530528210468
H           -8.25340944158047       -1.78712342067640        1.18546783990581
H          -10.38040195920479       -0.90545068864246        0.36420826400556
H          -10.41715258098717        0.85261101029179       -1.36258707676581
H           -8.32541024356599        1.73488333575480       -2.27246840698950
H           -5.83230338791225        1.74936385480819       -2.32976024876289
H           -1.95146711402473        3.44561178400999       -2.17319535818386
H           -1.69185747551861        5.54250598201024       -0.88454017960453
H           -2.43166840683895        5.63609863322840        1.46005102515574
H           -3.42592522422938        3.64903973946211        2.51658688938645
H           -3.67697126299673        1.56526150215439        1.21668431114334
H           -0.93010103426715       -2.17902870203852        1.02547135931599
H            1.49778112242450       -2.38573323227210        1.29376952317079
