65
 energy: -12.972809009828 gnorm: 0.000635565845 xtb: 6.5.0 (97a52f5)
C            0.91378441304578       -0.03529181576698        0.05836775320838
C            2.45279965694466       -0.10959080270419        0.07406123402857
C            3.00338021477354        1.15525027534030       -0.61331554897309
C            2.95574506330726       -0.13198444724439        1.52930617108061
C            2.90918016625729       -1.39331322769719       -0.63709361703778
C            3.78450449714302       -1.36791282027104       -1.73950350306520
C            4.19412122879522       -2.51527777253811       -2.37382034945326
C            3.73030410274680       -3.74213964719995       -1.90882023781023
C            2.85629940218133       -3.78964113419820       -0.81338847092834
C            2.45251312503944       -2.61509671023688       -0.17969428669375
C            2.53024063260059       -5.17721545099154       -0.58435448064113
C            1.70922493493982       -5.80479945712173        0.35174361984241
C            1.57176562342770       -7.18003547922964        0.33546928685993
C            0.64961167710184       -7.85290435957983        1.36423790257445
C            1.16285700901830       -7.54752918662191        2.78387367643413
C           -0.78043176323240       -7.30389664080066        1.20038642816942
C            0.60452564008843       -9.38260654724395        1.18160077673545
C            2.27979311494406       -7.91890785486700       -0.63088523744894
C            3.09138066521663       -7.31626188830076       -1.55967354406904
C            3.21602456746992       -5.93074854635803       -1.54746142899494
N            3.95562985145490       -5.05576778809169       -2.37188612070436
C            4.75272332692902       -5.41985972830846       -3.51067381107660
C            6.10174567441388       -5.08846050621722       -3.54609941738995
C            6.88604116879217       -5.43658062856586       -4.62121275114883
C            6.33298785114118       -6.12049367641206       -5.68730480827222
C            4.99761211603556       -6.45173779766261       -5.67538312383219
C            4.18524946993562       -6.11511527135851       -4.59586294038787
C            2.73323889798014       -6.42162546610453       -4.61584105684407
N            1.88589616443226       -5.39903294222576       -4.52181633802831
C            0.62229943620452       -5.75400032918540       -4.52545358619835
C            0.19332486014995       -7.05478595241456       -4.63322211814193
N            1.00171228339503       -8.08583565143731       -4.73834414146010
C            2.28972281203449       -7.75850673127631       -4.72366686703701
C            3.23898178985660       -8.79782191384784       -4.77778358980425
N            4.01030082516665       -9.66614097475336       -4.81295288890739
H            0.56323559134399        0.88134586613635        0.53127885748939
H            0.46984505066169       -0.87396838020544        0.59210401769434
H            0.53865670639905       -0.05240572668396       -0.96422078994684
H            2.65581130622288        2.05326323556329       -0.10369709447518
H            2.67046103196394        1.21444269050061       -1.64887543113203
H            4.09240669942077        1.16957551250905       -0.59618460710612
H            2.65548093256680        0.77095374804664        2.05961835872579
H            4.04281779670376       -0.19584660158215        1.55930223589231
H            2.55541443167151       -0.98686257536302        2.07213134497665
H            4.14628547387993       -0.42346692187395       -2.10411915118039
H            4.85529524636061       -2.48313714509906       -3.22121260734986
H            1.78605348160248       -2.67476642463274        0.66024736248196
H            1.18738117496923       -5.20772813057785        1.07593156746519
H            1.16303629094807       -6.47700212195740        2.98277749424456
H            2.18151265058519       -7.91197856934722        2.91106334032290
H            0.53653624649516       -8.02587138124688        3.53596032423178
H           -0.81524831420990       -6.22999454001032        1.37644408904584
H           -1.46317562965060       -7.77851107802758        1.90419231047563
H           -1.15043731559717       -7.49028207771417        0.19286437741094
H            1.59224813040349       -9.82287269561457        1.31258622376545
H            0.23298734807457       -9.64846322872543        0.19264897937566
H           -0.05867491942143       -9.83909378204210        1.91556425638807
H            2.18236506962636       -8.98930310516091       -0.65336910333589
H            3.61458059456357       -7.88918361483683       -2.30349138690384
H            6.52622162445765       -4.56092597605421       -2.70972045346997
H            7.93175495166115       -5.17630099368529       -4.63236071130234
H            6.94727400096031       -6.39117756693954       -6.53039794378806
H            4.56021621774718       -6.96953639853194       -6.51146477854799
H           -0.10502778559484       -4.96032114743228       -4.43916532928093
H           -0.86599458454736       -7.26550199792082       -4.63137833675297
