102
 energy: -21.975861888445 gnorm: 0.000274681900 xtb: 6.5.0 (97a52f5)
C            1.23888276467051       -0.32839267672999        0.99818071499941
C            0.93735568414462        0.71572432994173        0.14681209094479
C           -0.37569622872578        0.99999550048714       -0.16105811777886
C           -1.41570103990204        0.24423854920182        0.37876499735357
C           -2.82763316592764        0.54925269565985        0.04914896412321
C           -3.20665549688381        0.86668869258895       -1.25449384463961
C           -4.51733469155672        1.15078351354713       -1.56070840408054
C           -5.50431007175917        1.13264403957098       -0.57543699926150
C           -6.91423016028734        1.44272462172578       -0.90424340750863
C           -7.50114809975667        0.95877283841054       -2.07313037030333
C           -8.81083783372686        1.24744035011137       -2.37887068199670
C           -9.58750111077758        2.03524059921010       -1.53081814097268
C          -10.99565497069477        2.35094487361366       -1.86481910473618
C          -11.84320078578926        1.37167263425719       -2.37335443511835
C          -13.16583251831995        1.65264889419470       -2.70111943617077
C          -14.05014449614752        0.60004105268017       -3.25262649211846
C          -14.05553943915047       -0.68604586918528       -2.71516013596101
C          -14.87571902697705       -1.66317415749579       -3.22982835344789
C          -15.72142779089192       -1.39589586076710       -4.30617588668467
C          -16.60243643988770       -2.44804329471882       -4.86208665898319
C          -17.29185420177186       -3.32348073748663       -4.02346494676056
C          -18.11124379528956       -4.30011733019358       -4.54033456807977
C          -18.27345613342656       -4.44501900731805       -5.91755599478578
C          -19.15259660339413       -5.49950391579554       -6.47446422694924
C          -20.38789935449230       -5.78302602526567       -5.89316780766207
C          -21.20449307893391       -6.76413135976134       -6.41308665738894
C          -20.80467681302027       -7.48250617219773       -7.52211172495997
C          -19.58473055011437       -7.21656716330729       -8.11104630895520
C          -18.76640979436244       -6.23533611982594       -7.59415561336328
C          -17.58377093262279       -3.57028703427073       -6.75614238984308
C          -16.76677873075602       -2.59155486914146       -6.23954690529802
C          -15.71383501098589       -0.10936173432528       -4.84439010280587
C          -14.89679234697971        0.86870459330534       -4.32686622586899
C          -13.63644320375831        2.94740635043680       -2.50716493108785
C          -12.81685685380970        3.95107291092366       -2.00070288946139
C          -13.33392421103739        5.32625094472552       -1.81129559366093
C          -14.59207241805312        5.54784485745830       -1.25384344758804
C          -15.07433672858425        6.82483996272483       -1.08397158189289
C          -14.32038630840217        7.93340932846710       -1.46847418682052
C          -14.84442411423415        9.30713491916150       -1.29376844333188
C          -15.53306089367955        9.67050377036081       -0.13671351076451
C          -16.02588270068266       10.94492961027402        0.02247252021170
C          -15.85319250364772       11.90954318107168       -0.96937449893116
C          -16.38871412033690       13.28055368200138       -0.80041983215282
C          -16.29173275071958       13.94160522846742        0.42344724214859
C          -16.79053562018843       15.21708552193384        0.57857149249252
C          -17.39688753568946       15.85784993697077       -0.48334940399928
C          -17.50275022945463       15.21920037879518       -1.70268087413561
C          -17.00408656419279       13.94411577061414       -1.86122492065286
C          -15.16405646256062       11.54676552743237       -2.12588391887983
C          -14.66853965791328       10.27328148248089       -2.28407553701243
C          -13.06179332927732        7.71051950493822       -2.02645957412633
C          -12.57789660435685        6.43358339659525       -2.19229532696296
C          -11.49927109126878        3.63535995224471       -1.68443747916989
C           -9.00155096241558        2.52031181321204       -0.36277371778525
C           -7.69289096815066        2.22864165148260       -0.05498015893852
C           -5.12464663921348        0.81547912040639        0.72855694429087
C           -3.81440456710239        0.52834615087229        1.03393559436331
C           -1.09146864555559       -0.80568070104606        1.23708984731972
C            0.22263232107017       -1.08822978510645        1.54206191985125
H            2.26623755129979       -0.54966580673120        1.23804342850404
H            1.73026690692382        1.31078308109969       -0.27640513249802
H           -0.61051986422904        1.82161063119317       -0.81568252023926
H           -2.45826320357290        0.87767043733985       -2.02811942674921
H           -4.79128234842485        1.40405365682165       -2.57037487944978
H           -6.91755950404263        0.34160602196981       -2.73432501033534
H           -9.24694703923559        0.87303016011239       -3.28898357244895
H          -11.46677283914405        0.37558961347241       -2.51916044330927
H          -13.41294051723660       -0.90610677452429       -1.88009753916192
H          -14.86169906733904       -2.65411564767170       -2.80975289590630
H          -17.18470404286702       -3.21899694870721       -2.95752695191349
H          -18.62972767941552       -4.97303176929345       -3.87926954316792
H          -20.70571551688235       -5.21566461274473       -5.03539600033644
H          -22.15798013101269       -6.96975301269237       -5.95428773483590
H          -21.44395025928121       -8.24989380933103       -7.92754589477105
H          -19.27106548081236       -7.77848749489488       -8.97580489234286
H          -17.81033978895611       -6.03702449826887       -8.04722784089290
H          -17.70599324464643       -3.66220094433722       -7.82163615273103
H          -16.23360536589950       -1.93067497713242       -6.90105999912114
H          -16.36774497716895        0.11616152831302       -5.66910477001356
H          -14.89705969569760        1.85503088283738       -4.75798877374479
H          -14.65582433312442        3.17858783626345       -2.75738795369858
H          -15.18426563764359        4.70267221393256       -0.94770853488716
H          -16.05229520430048        6.97915450960246       -0.66162253029718
H          -15.66792788811520        8.93993008067880        0.64217767853379
H          -16.56388127717209       11.20593535409646        0.91750805460731
H          -15.80928636704985       13.44720740717331        1.24898190032988
H          -16.70587311593502       15.71600714610282        1.53033643997982
H          -17.78703063947103       16.85518176950833       -0.36072195493562
H          -17.97778120089226       15.71825299964084       -2.53169942387807
H          -17.09787489283607       13.44270144260060       -2.80909962965288
H          -15.01318982881791       12.28252589483277       -2.89695371920048
H          -14.14773459117359       10.00675236646458       -3.18757435704965
H          -12.46251272437513        8.55537640256185       -2.31913144665209
H          -11.60817088333619        6.27730308819994       -2.63263522751774
H          -10.85536514406142        4.40207555641116       -1.29364270981137
H           -9.59135931928558        3.12290553625277        0.30634243815396
H           -7.25194487444828        2.61950677956013        0.84581276534304
H           -5.87580798593987        0.78567617745629        1.49891651193366
H           -3.53654972197193        0.29390028133953        2.04712010355640
H           -1.88270960381070       -1.40552569184681        1.65280081369408
H            0.45768696916532       -1.90481578628364        2.20526876866951
