42
 energy: -8.902211321044 gnorm: 0.000471679481 xtb: 6.5.0 (97a52f5)
C            1.37506411978717       -0.27144701431323        0.22770881866872
C            0.95868581695236        0.91631989170768       -0.33924334982517
C           -0.38640515791824        1.17438089149839       -0.49430211710572
C           -1.34404971072051        0.24799986462288       -0.08316566189835
C           -2.79030326998312        0.52867698685385       -0.23939655545244
C           -3.28346409504318        1.13459114800951       -1.39414491522256
C           -4.62578797986241        1.40040714324839       -1.53587159906752
C           -5.53286584178210        1.07275090001532       -0.52826778805951
C           -6.97650252764231        1.36282552866979       -0.67823531006065
C           -7.61667504427291        1.21118414539548       -1.90814518865959
C           -8.95841847462544        1.48190162059023       -2.04641998388824
C           -9.71792934072944        1.91609984442476       -0.96083413347855
C          -11.16399384289120        2.20315591915858       -1.10641128893534
C          -11.98492514769208        1.37754994603690       -1.87367144530533
C          -13.33221956544407        1.64040790134130       -1.99897716972796
C          -13.88722336951178        2.73241442329137       -1.36271472958354
C          -13.09004193946154        3.56274687476082       -0.60053773324236
C          -11.74258400553988        3.30224728020290       -0.47301344908414
C           -9.07848879409747        2.06846863949302        0.26860437761520
C           -7.73703024455830        1.79758065668832        0.40706423954672
C           -5.03863557283754        0.46619694403481        0.62639802299403
C           -3.69652511720661        0.19960058444247        0.76759131471360
C           -0.90402632517071       -0.94627635891085        0.48611134412559
C            0.44175241741169       -1.20173769377573        0.63920519469910
H            2.42725751528945       -0.47168057493547        0.34929845473740
H            1.68670159092144        1.64443790572786       -0.65833491480276
H           -0.70996846896248        2.10701853695524       -0.92348556969164
H           -2.59875030409859        1.38717378710662       -2.18529447973276
H           -4.98642233242094        1.88073772906506       -2.42896482256377
H           -7.04912046392888        0.86438107646280       -2.75435599809444
H           -9.43376315842510        1.36881938055178       -3.00549152152911
H          -11.55646751370440        0.51788028206788       -2.35935600299916
H          -13.95461049281919        0.98959108368255       -2.59153576126211
H          -14.94146773849760        2.93546708935485       -1.45933591418591
H          -13.52193484583198        4.41697170108775       -0.10504868090339
H          -11.12014190802456        3.95778224520733        0.11147675528019
H           -9.65243652734650        2.39223193776788        1.11967993376732
H           -7.25796946011184        1.93381686257681        1.36119777777059
H           -5.72441848012632        0.19623684959990        1.41072825558863
H           -3.33082122952492       -0.25794697892318        1.67059787197679
H           -1.63041185706677       -1.67735571107546        0.79696938185451
H            0.76609868752845       -2.13025926977237        1.08022434102234
