55
 energy: -11.940533424887 gnorm: 0.000399746342 xtb: 6.5.0 (97a52f5)
C            1.39456937054563       -0.21831789684646        0.14640833010951
C            0.93615340738777        0.85454606098127       -0.59156052672422
C           -0.41469708835181        1.10869519744120       -0.68197558030573
C           -1.34716905664784        0.29328075386398       -0.03372075988345
C           -2.79322566659855        0.53666046347441       -0.14627081845083
C           -3.32410787828907        1.25314339714040       -1.19893701958209
C           -4.69501245697696        1.49475768845231       -1.34249765454823
C           -5.63788059294546        1.03446036413963       -0.44522162608762
C           -7.06740338974556        1.31050392101894       -0.62478177943427
C           -7.59956205201373        1.63973809046781       -1.87735316842321
C           -8.93435143584055        1.91940387354045       -2.03032463540946
C           -9.80419600139198        1.89016738433854       -0.94068810933819
N          -11.19612020977550        2.17827995958820       -1.10438329641084
C          -11.87591077918110        1.78238894024089       -2.30622044994863
C          -12.84427831662175        2.60197026924629       -2.88068728709805
C          -13.49789253148147        2.21756057577404       -4.02981840174604
C          -13.19804125450468        1.00800215457595       -4.62582919118178
C          -12.24049103269356        0.18351566766692       -4.06790443303443
C          -11.58492516244823        0.56613117233934       -2.91945551220144
C          -11.92184595819781        2.85693127659528       -0.06736796725920
C          -13.24029985074128        2.51328811140661        0.22113443647238
C          -13.93735704311837        3.16992491449315        1.21025724535168
C          -13.33200685076182        4.18257020170282        1.92861700450518
C          -12.02517890193620        4.53582934263447        1.65406542376484
C          -11.32566068017364        3.87971392510598        0.66637887038229
C           -9.28318183918196        1.55726795602459        0.30883960899322
C           -7.95134131926903        1.26666877298019        0.45720127696690
C           -5.15160078016297        0.27818869363104        0.68460504382396
N           -5.86732461819277       -0.25692590525959        1.65182619334194
S           -4.84529950014005       -1.02453074347587        2.68377511984163
N           -3.43922484466747       -0.68582720045310        1.90438326711311
C           -3.72281150708452        0.02279901070962        0.83116875701568
C           -0.85511936196634       -0.77524946472520        0.71733208151640
C            0.49413581019019       -1.03247169752780        0.80281441424585
H            2.45189826119268       -0.41590608553525        0.21433446835373
H            1.63886240470087        1.49649074271814       -1.09743116047296
H           -0.75404681166881        1.96175621854082       -1.24232583194834
H           -2.65992650399086        1.62606877124633       -1.95801147167187
H           -5.02238720276525        2.08659231966568       -2.17854461390630
H           -6.95705068110683        1.65165384332801       -2.73962034363008
H           -9.32733726655785        2.17578212124681       -2.99852791775406
H          -13.06801376714177        3.54625112909744       -2.41609495689074
H          -14.24406554300377        2.86166233533137       -4.46557140361456
H          -13.71093813144820        0.70757307971461       -5.52478408353904
H          -12.00701133928040       -0.76102247722602       -4.53142744135500
H          -10.84448528104306       -0.07579292665561       -2.47509698483253
H          -13.70444248208403        1.71924444623041       -0.33709309893232
H          -14.95665214224042        2.89317845725824        1.42469341480945
H          -13.87877887769498        4.69669967858030        2.70203561347171
H          -11.55297903570385        5.32728596656995        2.21274267264151
H          -10.31059815720037        4.15694661677222        0.44190058023879
H           -9.94790957331846        1.51251643713650        1.15357473836140
H           -7.57044048712334        0.99201181416102        1.42262009163360
H           -1.55170832794742       -1.40158443632164        1.24202751340546
H            0.84800031841011       -1.86693328314590        1.38614135925606
