33
 energy: -7.161243504476 gnorm: 0.000242412409 xtb: 6.5.0 (97a52f5)
C            1.39749350481225       -0.29357403566983        0.07700213111163
C            0.95455904310892        0.85183580375565       -0.55316720818570
C           -0.39333112251640        1.12511228736612       -0.62852312812744
C           -1.33517847176026        0.25641135456885       -0.07208413679570
C           -2.77893114567324        0.52311337569442       -0.17186158725318
C           -3.30427702594825        1.27415984668829       -1.20126154446227
C           -4.67425356127889        1.53835569527153       -1.32725658446450
C           -5.61247613825912        1.06775248161614       -0.43381617674607
C           -7.04392271376868        1.37189171845392       -0.58892993284616
C           -7.59646725592902        1.66364464362512       -1.83835256625837
C           -8.93224211996983        1.97370366391769       -1.96801391276938
C           -9.75047146382813        2.00246700966219       -0.85678366419629
C           -9.22843142134469        1.70932461169471        0.38648019809814
C           -7.89531368172180        1.39246620251631        0.51574341711237
C           -5.13015779653620        0.27686485612660        0.67059841050211
N           -5.84561897418269       -0.26482643063486        1.63603651324982
S           -4.82509484990336       -1.06620501605517        2.64179620285407
N           -3.42230670076549       -0.73873090422002        1.85438622824100
C           -3.70616630664376       -0.00388640407937        0.79760073682574
C           -0.86109616561765       -0.88591890418237        0.57286123482096
C            0.48556920447416       -1.16188232627830        0.64157009650734
H            2.45247382934768       -0.50659926983008        0.13259513362898
H            1.66654576277484        1.53555333208166       -0.98586249060200
H           -0.72555257643161        2.03086431637089       -1.10432985891149
H           -2.63748228786408        1.65679498358227       -1.95348437319507
H           -5.00353993676767        2.15404525780019       -2.14530892799174
H           -6.97361070152099        1.62466254716391       -2.71448601689070
H           -9.34102096404109        2.19296522912488       -2.94085238030164
H          -10.79478494319211        2.24768999143964       -0.96034865317170
H           -9.86575960900269        1.72429501288941        1.25544793768424
H           -7.49385598910112        1.14807895128805        1.48171127606932
H           -1.56936603737204       -1.55395903709022        1.02712547737581
H            0.82835861641931       -2.05376084465919        1.14015814908728
