32
 energy: -6.723521405532 gnorm: 0.000231090471 xtb: 6.5.0 (97a52f5)
C            1.36406967261678       -0.29415049042717        0.12963406445882
C            0.93820266152099        0.99040956257588       -0.14378201855317
C           -0.40775813806509        1.26161639746985       -0.26439190856269
C           -1.35571142092430        0.25099049944495       -0.11041456015319
C           -2.80375501344386        0.54180972344272       -0.23346960741622
C           -3.29097333227812        1.32531867971120       -1.27857748131566
C           -4.63567554667828        1.59286740124181       -1.39325143055708
C           -5.54665015904755        1.09262241084462       -0.46410712743955
C           -6.99496243052939        1.38327318762019       -0.58466437936341
C           -7.64859750749982        1.26422622707176       -1.81032368428627
C           -8.99670329318753        1.52972543488713       -1.91917917061680
C           -9.71735778190481        1.92187119263638       -0.80873313858297
C           -9.08619976915742        2.04755871738578        0.41279279072520
C           -7.73888467876254        1.77992146126609        0.52569038502742
C           -5.05909435891546        0.31136238094939        0.58239860416982
C           -3.71521439358974        0.03910195798391        0.69384306870544
C           -0.90704680985541       -1.03974093060270        0.16594100991860
C            0.43972897402486       -1.30816086296282        0.28327165742207
H            2.41702451146915       -0.50504233926155        0.22318129502138
H            1.65930867691136        1.78313003962270       -0.26041051890659
H           -0.74117069035742        2.26503945104458       -0.46658008569406
H           -2.59948251731088        1.71395739474024       -2.00627888336788
H           -4.99734152260952        2.20428305261349       -2.20203428172735
H           -7.08801112271916        0.94863205731438       -2.67347900020205
H           -9.48971556926042        1.42815941943474       -2.87239504619423
H          -10.77158955194957        2.12934101699219       -0.89533501737168
H           -9.64752902796065        2.35705419959956        1.27945420781167
H           -7.24400611604983        1.88608720829149        1.47581866943329
H           -5.75224826775839       -0.08758744598727        1.30291867446004
H           -3.35220951868418       -0.56155096385031        1.51004505651489
H           -1.62807443924250       -1.83149021112624        0.27632487647709
H            0.77166848119886       -2.31195582996764        0.49344298016659
