109
 energy: -24.753391623736 gnorm: 0.000443492394 xtb: 6.5.0 (97a52f5)
C            2.43467928958400        2.25323497346429       -3.01978096185362
C            1.58186648098205        3.31216667143159       -2.78044805560083
C            0.26440617800867        3.07871582173215       -2.45155737140802
C           -0.22926242180671        1.77730514561036       -2.35577182802557
C           -1.64229044341593        1.52433840903099       -1.99827747807409
C           -2.36212357041159        0.49114714977631       -2.60167325104986
C           -3.67207692679311        0.25362452055676       -2.26374277550750
C           -4.31513750515692        1.03624303730747       -1.30843212150899
C           -5.71838927737775        0.78830799694556       -0.95217360698340
N           -6.24523145337086        1.54038445781665        0.00134677773387
C           -7.51240220976065        1.27475326753896        0.25363871350905
N           -8.15430508459480        2.02355869925619        1.30430405383581
C           -8.75631809553252        1.36840722296082        2.39052283279783
C           -8.98111167693973        0.01262785534681        2.62207117417995
C           -9.61645517165871       -0.36436461333159        3.77747604867680
C          -10.03165950045609        0.59044103384416        4.71171112905243
C           -9.81616765192152        1.93028133470430        4.49816632214472
C           -9.17111333328305        2.32753712667615        3.32371117493674
C           -8.80887181505779        3.61433409683842        2.79288601278019
C           -8.96723512067610        4.89718502259141        3.35591712992050
C           -8.53666490462917        5.98910612251247        2.66207402513874
C           -7.96426918567686        5.81822210439664        1.38359775141914
C           -7.50361269743778        6.80823819404643        0.45075796648835
C           -7.43921837417667        8.20302848100334        0.51642646047066
C           -6.99011095681464        8.89422713355235       -0.58146699609615
C           -6.61289011498410        8.22143399529662       -1.74780816879778
C           -6.67320572815768        6.85224935288958       -1.82532577835420
C           -7.11209707723756        6.13110989935589       -0.71293147121545
N           -7.30597923247319        4.74668668152747       -0.52409265653222
C           -7.20250764818715        3.81876588812603       -1.61953879314669
C           -6.04577608403911        3.76061480532900       -2.38978988805735
C           -5.98192834493237        2.95045653008467       -3.50205220288013
C           -7.07249812878617        2.18471448022760       -3.86331154644193
C           -8.22543854330236        2.23306873655744       -3.10635528009696
C           -8.29137035589175        3.04581658546338       -1.99691736536638
C           -7.81302483650275        4.55476047130977        0.78327134386259
C           -8.21326677848521        3.41286596593232        1.53288179844650
N           -8.23192677529570        0.32038636294909       -0.31070252014255
C           -7.61169799766620       -0.35464995455816       -1.25573911019807
N           -8.31747445456173       -1.44415699601529       -1.88410291040224
C           -7.70534589756755       -2.21363512511047       -2.89734063561231
C           -6.73178622054092       -1.87344875070294       -3.83781820406764
C           -6.26011528953626       -2.84080240035044       -4.68826582832302
C           -6.73543700729594       -4.15416055735676       -4.61727875339839
C           -7.68843161025636       -4.51065704841197       -3.69524225929616
C           -8.18356273134681       -3.53222182491973       -2.82897192278317
C           -9.14079713749848       -3.58013981371390       -1.75877027384448
C           -9.78971877714843       -4.68385669565818       -1.16427913711075
C          -10.59973156536839       -4.48538875945392       -0.08344309159573
C          -10.82830640663881       -3.17166693423164        0.38199691225093
C          -11.74335478662857       -2.68902693841860        1.37950852182283
C          -12.56388007489556       -3.35220364392363        2.29601361374197
C          -13.39435856737142       -2.60767131465720        3.09600595143784
C          -13.43492088979130       -1.21450091216818        2.98725562643077
C          -12.64176392833100       -0.55162138073141        2.08441700874544
C          -11.77092051998574       -1.28845234007444        1.27826887083872
N          -10.88084696185305       -0.88420968171338        0.25553983281644
C          -11.04974326652857        0.35304073969403       -0.46564631999139
C          -11.11836419488449        1.56890169722546        0.20492204589556
C          -11.41722888457822        2.73066557969963       -0.46991253250454
C          -11.65028260870393        2.69731960845071       -1.83052804014579
C          -11.56938923256346        1.49982740030148       -2.51389533001763
C          -11.26849414315485        0.33785731641812       -1.83845363199652
C          -10.23815028755365       -2.05024185223094       -0.22671033821600
C           -9.29157343436838       -2.26936603582477       -1.26817612017717
N           -6.35431815743565       -0.16712649208301       -1.61464786427520
C           -3.60155562413967        2.06938359833320       -0.70670966602781
C           -2.29228359501667        2.31012779104967       -1.04458222200918
C            0.64820162746689        0.72085892826386       -2.60199573800624
C            1.96522736679786        0.95809020917522       -2.92993112707707
H            3.46513545866326        2.43725696692386       -3.27644232222784
H            1.94712535177176        4.32363522963784       -2.85244717766880
H           -0.40178329179791        3.90613944329083       -2.27897776710569
H           -1.88229887126624       -0.11424220783369       -3.35091395103456
H           -4.22155567296411       -0.54158158836906       -2.73538188401404
H           -8.69565365678841       -0.70258101917312        1.87268557352464
H           -9.81407212496599       -1.40778692935223        3.96002412843308
H          -10.53323471222171        0.26872441866840        5.60951241902224
H          -10.13695607152881        2.66970811089926        5.21041842288456
H           -9.41832213571335        4.99830880190268        4.32708417795717
H           -8.64271129558808        6.97997926618787        3.06674987788736
H           -7.74316278890291        8.71299191238648        1.41336197164202
H           -6.93385427096433        9.96986333670214       -0.54776481686166
H           -6.27389479311676        8.78794923718973       -2.59961339184497
H           -6.39985829345668        6.33350911897298       -2.72609168057820
H           -5.19559486608330        4.35082953388771       -2.09541755004757
H           -5.07629307079969        2.90687080122123       -4.08466069233301
H           -7.02104008140114        1.54513063899544       -4.72903982800301
H           -9.07022240875152        1.62048487717784       -3.37178237995922
H           -9.17983857710467        3.07850959920767       -1.39397796523063
H           -6.37096712864291       -0.86198989932761       -3.87990842239023
H           -5.50979404325509       -2.58714649444196       -5.41906563738593
H           -6.34563419317256       -4.89615590631806       -5.29458462166419
H           -8.05594899995486       -5.51954132422163       -3.63105888046816
H           -9.61515873933341       -5.67167973901094       -1.55227855588232
H          -11.10079727038978       -5.30972508093582        0.39213191030848
H          -12.53639249711420       -4.42547598143075        2.36188271858458
H          -14.03021280136803       -3.10290068151330        3.81132474108270
H          -14.10255675571474       -0.65366876177987        3.62059666247180
H          -12.68505703762731        0.51773027232245        1.99219192507622
H          -10.90778989681788        1.59286020159811        1.25851085155121
H          -11.46246696942945        3.66628765901124        0.06333967003144
H          -11.88474768628821        3.60619085488393       -2.36006682396209
H          -11.74638271347341        1.47378687782317       -3.57675729192116
H          -11.21557854559802       -0.60058306891025       -2.36169588681984
H           -4.09911113081052        2.68207739773323        0.02421163851338
H           -1.74999002443866        3.10381691512872       -0.56081177511160
H            0.28868501337052       -0.28998294888138       -2.51730440585860
H            2.63122792902332        0.13087172266568       -3.11394090598502
