51
 energy: -11.183148239132 gnorm: 0.000219751258 xtb: 6.5.0 (97a52f5)
C            0.62032857471714        1.34722269589047       -2.70344984797728
C            0.10441926122470        2.38225970154800       -1.94935988730630
C           -0.77535788708781        2.11826265441188       -0.92167649040632
C           -1.15737781348671        0.81011297309155       -0.62821039413322
C           -2.09460416310606        0.51790083766283        0.48053915707390
C           -1.98235583652974        1.18349193175787        1.70757129953413
C           -2.82262136601544        0.89872023268679        2.76267235992256
C           -3.80247391950541       -0.07077289825521        2.59878708698661
C           -3.93226571471319       -0.73324968816861        1.37630270936839
C           -3.09117998427068       -0.44786268241574        0.32550438341225
C           -5.06090359262902       -1.75747019175991        1.47897947852796
C           -6.17381515299702       -1.51634805382106        0.45936837546808
C           -6.98741931965789       -0.41877662132041        0.27113965110240
C           -7.93833067599263       -0.45700274182685       -0.73252116722749
C           -8.07292518434598       -1.57788217086623       -1.53722993336530
C           -7.26175035960034       -2.68026394357670       -1.35356793272113
C           -6.30668606068762       -2.64857609169679       -0.34724155392903
C           -5.32935974436926       -3.66532478583188        0.07592374799197
C           -5.07689783669641       -4.93551643271792       -0.42268015987181
C           -4.08298762877155       -5.69530826945234        0.16199450353766
C           -3.34851474488139       -5.20165075868533        1.22919879661975
C           -3.59644527458315       -3.93716113403354        1.73171850319258
C           -4.58856014536123       -3.17388958079582        1.15290659237186
C           -5.54219825735329       -1.60261215125999        2.92133522323724
C           -6.53698816417764       -2.26884997417141        3.60553236111297
C           -6.78122802076900       -1.93134532103133        4.92454843513663
C           -6.04024175690046       -0.94057578946651        5.55039471316630
C           -5.04305252463238       -0.26924621340938        4.87108952450079
C           -4.79362654212540       -0.60229451681385        3.54683725428666
C           -0.62713147829224       -0.22175569714837       -1.40157919944195
C            0.25299418831544        0.04537852300337       -2.42780392939165
H            1.30970345763037        1.55499717694492       -3.50563495784480
H            0.39002921702168        3.39899713366101       -2.16521925373507
H           -1.18478166647605        2.92657904690702       -0.34058830810354
H           -1.20595887491009        1.91898533733540        1.82833214105258
H           -2.72262771128624        1.40544253696903        3.70638253691830
H           -3.20455815153754       -0.97007732559201       -0.60666263514184
H           -6.87491235727646        0.44455274624772        0.90341722781246
H           -8.58178623132791        0.39335729343840       -0.88893722877721
H           -8.81995333204562       -1.59003195547858       -2.31408249680518
H           -7.36095742662106       -3.55484061133244       -1.97221523309113
H           -5.64996752015092       -5.31025072862319       -1.25249833259334
H           -3.87513726069880       -6.68258302892382       -0.21709239710535
H           -2.57470013554369       -5.80790021715536        1.67107416800273
H           -3.03041576269921       -3.54115254404890        2.55669906972033
H           -7.10546399941960       -3.03584054901341        3.10920538605757
H           -7.55554066702973       -2.44473690222401        5.47088404948139
H           -6.24395269120668       -0.69187261927378        6.57914226245045
H           -4.46252500252129        0.49973030911904        5.34972023275461
H           -0.90321371635670       -1.23808452549909       -1.17851809568638
H            0.65744695771759       -0.76369441498455       -3.01413179615553
