72
 energy: -15.841381599939 gnorm: 0.000140963899 xtb: 6.5.0 (97a52f5)
C            1.33524487774992       -0.22714048378618       -0.36490343845012
C            0.76977427570110        0.83594090806886        0.31109563176416
C           -0.59754101851334        1.00128134808445        0.31931696370565
C           -1.43022213831346        0.09556656601828       -0.34035321231711
C           -2.90181978934329        0.29976636272643       -0.37692797599102
C           -3.45790749770148        0.60469475791535       -1.60573815710310
C           -4.78511437262652        0.95057987073524       -1.74161829007483
C           -5.62922924324419        1.03697446367966       -0.64403247790672
C           -7.02281649553068        1.44463952170570       -0.79004770713328
C           -7.57568103445243        1.69089117813634       -2.03861326053645
C           -8.90027105856633        2.04341217429087       -2.18509035158367
C           -9.74103142998009        2.20077419247282       -1.09853849651167
C          -11.18122935979496        2.42263892412166       -1.38812035161097
C          -12.14033641614995        1.47732721854383       -1.02032031910666
C          -13.47007642880935        1.66754348326033       -1.32448155817946
C          -13.86897751403406        2.79671645827668       -2.01196928740055
C          -12.93212088013951        3.73241564623119       -2.40393310542959
C          -11.60107146999763        3.54582668268575       -2.10326963671389
C           -9.20101253700305        2.04761062013696        0.22248613336953
C           -9.95826551693446        2.32127686741488        1.41088495680580
C          -11.26647410247769        3.02530471398059        1.41978518197329
C          -11.37771788374016        4.33280937000261        0.94346685450807
C          -12.58134794268931        5.00042242516261        0.99158508278856
C          -13.69475468557368        4.38354979288455        1.52688197502806
C          -13.59950021503039        3.09838971391684        2.02313847711538
C          -12.39760168445001        2.42716638077692        1.97833420378470
C           -9.40663913384108        2.00815009348050        2.63981585425626
C           -8.12893309383584        1.50450880222233        2.75957526306568
C           -7.31547574293482        1.31500051291261        1.65148383713821
C           -5.94416517465969        0.83512428369210        1.78956364846001
C           -5.42232605893940        0.49097437050086        3.02809331997535
C           -4.13766829915434        0.00989207996954        3.16159715257491
C           -3.29092854680982       -0.13029829240654        2.07741785553295
C           -1.98628197707286       -0.79634550739130        2.32801182777066
C           -1.70558805031484       -2.05108873820031        1.78426339306347
C           -0.51338790333223       -2.68537035845520        2.05512644093649
C            0.41708554111727       -2.08817142732061        2.88247899113473
C            0.14819787999504       -0.85723397159223        3.44759962152098
C           -1.04333842432240       -0.21991358777387        3.18126050723791
C           -3.74728453314059        0.28932307303643        0.78292544278435
C           -5.10423603642028        0.71852909692127        0.64300695043134
C           -7.84907430645469        1.60319798804315        0.36105609492418
C           -0.83824301531978       -0.95922277613792       -1.03777753386113
C            0.52950115126421       -1.12103174464542       -1.04211635202723
H            2.40516803409376       -0.35778019233953       -0.36613231082660
H            1.39928259964282        1.53616804176185        0.83558364948312
H           -1.04251599834978        1.83124657380907        0.84082365279928
H           -2.81784972803105        0.60236721782658       -2.47204417930242
H           -5.14934326759729        1.18961805419635       -2.72342254587573
H           -6.98069340608908        1.57409586481746       -2.92524189893127
H           -9.31077668982996        2.16862296321607       -3.17296075428164
H          -11.82457199173954        0.59715721051413       -0.48706034712830
H          -14.20094789627577        0.93538220152446       -1.02202323686050
H          -14.91072433641003        2.94661410511707       -2.24450309760878
H          -13.24315558617023        4.61154086187602       -2.94447444883942
H          -10.86827228845292        4.27368096934891       -2.40679727261730
H          -10.50606641320891        4.81114250336004        0.53080208121885
H          -12.65473920667004        6.00511191402820        0.60828022159667
H          -14.63706674937358        4.90581684147102        1.55951736921178
H          -14.46782003224618        2.61884032822945        2.44483272359984
H          -12.32001413936877        1.42531738387052        2.36455894858645
H           -9.98592361725241        2.20422486139199        3.52645391718334
H           -7.75685584543406        1.29458001270331        3.74506358298304
H           -6.03028285325994        0.56602575378917        3.91040969512253
H           -3.78360747492592       -0.29852847096289        4.13095574832744
H           -2.43564718871951       -2.51472029473525        1.14326809949458
H           -0.30519538218786       -3.64843846092742        1.61826212006935
H            1.35179553710222       -2.58364951764964        3.08892898382870
H            0.87272859402226       -0.39330430375759        4.09691627554561
H           -1.25696088149577        0.73918837731136        3.62103602909706
H           -1.46933132161296       -1.65331880747356       -1.56585401496441
H            0.97157481566482       -1.94756504661556       -1.57427914062118
