96
 energy: -20.910235934678 gnorm: 0.000501126007 xtb: 6.5.0 (97a52f5)
C           -2.31291927205274       -7.50564249376818       -1.99686047967740
C           -3.62582384396425       -7.92796019953228       -1.93658991233804
C           -4.52506387405000       -7.27615388436558       -1.12009827201643
C           -4.12698405065790       -6.18768011658462       -0.34623755903594
C           -5.09010234352129       -5.48256539405710        0.53180539525361
C           -6.02500679724304       -6.18719677382800        1.28995530579267
C           -6.91379922246084       -5.52296858200782        2.11014572124326
C           -6.88864388629591       -4.14873451776916        2.19101745652571
C           -5.96779192323830       -3.41775364085110        1.44599531582244
N           -5.91242077460937       -1.97333736045242        1.53941731852502
C           -5.07194117769023       -1.39171241903991        2.51574461378713
C           -4.42259463790564       -2.20419107383661        3.44619747247282
C           -3.68198189431364       -1.68106986522432        4.49201557712598
C           -3.02228766145100       -2.57828734661948        5.46623967291397
C           -2.44512574586464       -3.77864704033082        5.05261253547203
C           -1.83815203173614       -4.61999340555887        5.95964730430823
C           -1.79597058911588       -4.28220345633240        7.29752565995053
C           -2.36356043098155       -3.09913967883703        7.72644216223695
C           -2.97071246567325       -2.25515387742189        6.82180958724432
C           -3.60051192770251       -0.28612161263740        4.61242855322433
C           -4.21374651242396        0.53080862780376        3.70008214389842
C           -4.92154008035116       -0.00222462335007        2.62965777409963
B           -5.57613545044458        0.85119741626662        1.52760698458805
C           -5.23165477911961        2.31401370771094        1.21385503588200
C           -4.07010762689072        2.95417977661345        1.63942852332583
C           -3.84728696253591        4.27219379422423        1.34931901837303
C           -4.78147827932370        5.00667064345199        0.60339999837852
N           -4.57784228725502        6.37883313982497        0.27515090441884
C           -3.25275529975586        6.92064166966920        0.15632174055606
C           -2.97877637802492        8.21764463720481        0.58489570186969
C           -1.71399611089819        8.74690426022702        0.46016442355022
C           -0.69971373947221        7.99356542152892       -0.09877308708731
C           -0.95670287280593        6.70839630919535       -0.53577516175780
C           -2.22059888019734        6.17683443855189       -0.41205855294990
C           -5.70710767787174        7.20874290282277       -0.04711090599448
C           -5.65859397210623        8.08490014831373       -1.12913104797580
C           -6.75001243157137        8.85702119421583       -1.45773262472258
C           -7.90946480171393        8.77137853799574       -0.71138511405703
C           -7.97178042086306        7.91259866087003        0.36872109883190
C           -6.88138251616319        7.14086578079819        0.70032707921479
C           -5.91628736671670        4.35410193464732        0.15611126667426
C           -6.16029493489419        3.01193823677426        0.42515733339965
N           -7.28035420209119        2.38308527589144       -0.16356482484840
C           -8.19144474031462        3.20845582555547       -0.92937753181956
C           -9.11298366286154        4.02680712966809       -0.28118909658364
C           -9.92645063988182        4.87175245533348       -1.00171246115880
C           -9.83336964243754        4.91423023194100       -2.37935261673642
C           -8.92305258044232        4.10809482741056       -3.03540570178223
C           -8.10659933695805        3.26291136579404       -2.31810756248430
C           -7.45894400135899        0.98587957336486       -0.12476774903456
C           -8.44217213636776        0.35190216043690       -0.88110866574396
C           -8.57144399300668       -1.02142186449860       -0.86210121629351
C           -7.73449498467528       -1.79289937152532       -0.08275929287187
C           -6.75475047900601       -1.20258314124238        0.71273932138387
C           -6.63069148664612        0.19147437603913        0.67769701608506
C           -5.07728426730735       -4.09665072274304        0.62405937656539
C           -2.79779220074037       -5.77507503226703       -0.42067173654765
C           -1.90084678567270       -6.42872413553443       -1.23791821846539
H           -1.61044667260678       -8.01594941982946       -2.63559834030388
H           -3.94879065938529       -8.76764599492887       -2.53029254273345
H           -5.55147646407633       -7.59824497246772       -1.08275088189390
H           -6.03811713695669       -7.26219845890237        1.23886108557599
H           -7.62758602990812       -6.08207997902244        2.69283724455983
H           -7.57370069219503       -3.62187843839435        2.83215976461784
H           -4.52918433070996       -3.26937101766393        3.36626187127159
H           -2.46652107817556       -4.03911154144273        4.00853231180270
H           -1.39432448447398       -5.54305656041992        5.62370761471888
H           -1.32124617576985       -4.94126493600291        8.00614092594726
H           -2.33409704110133       -2.83623972485641        8.77141438053775
H           -3.42654476694993       -1.34117296718751        7.16122143060886
H           -3.03960679950964        0.13866303994152        5.42676933746531
H           -4.17990323533263        1.59744434872247        3.83015675836339
H           -3.32281784872966        2.39084549850967        2.16821301114497
H           -2.95496131723664        4.76285285754045        1.69601439291173
H           -3.77288631007281        8.79836210155067        1.02079052772771
H           -1.51486231043148        9.75059325403609        0.79881597497699
H            0.29018023203263        8.40879414579520       -0.19594024439534
H           -0.16735086676249        6.12194352625872       -0.97706859841661
H           -2.43030891604979        5.18334279468719       -0.76830040050788
H           -4.75678543933011        8.13866739574396       -1.71358695915651
H           -6.70076813950821        9.52728833015295       -2.30035705785284
H           -8.76440709551159        9.37403261315537       -0.97129160066869
H           -8.87572072087684        7.84530747010330        0.95186218679845
H           -6.92204237446740        6.47592446096903        1.54550148923119
H           -6.61668452231591        4.89715078788116       -0.44788939141652
H           -9.16851183396515        3.99524794368299        0.79303146915640
H          -10.63292296989960        5.50460042447341       -0.48979730139096
H          -10.46875742310988        5.57863159866780       -2.94204750499690
H           -8.84791834155707        4.14497253054632       -4.10997458150278
H           -7.38293035288352        2.64322880765654       -2.81853130568016
H           -9.09633994628916        0.94669574322999       -1.49294896035492
H           -9.33131718482996       -1.49532844206027       -1.46177421564556
H           -7.84135037966156       -2.86281230616660       -0.07139844411551
H           -4.36990266860613       -3.52930796284847        0.04811403578980
H           -2.47304862363872       -4.94212322409418        0.17874674307868
H           -0.87540000745010       -6.09952655688575       -1.28281922638356
