51
 energy: -11.182607771787 gnorm: 0.000746211185 xtb: 6.5.0 (97a52f5)
C           -2.75188332707348       -2.71336754094959       -4.09029080015685
C           -3.06657058673874       -1.37161790556234       -4.17442884551497
C           -2.90966709187617       -0.55494009859354       -3.07582533793451
C           -2.43463587178378       -1.06935614531799       -1.87150262846767
C           -2.29572793610049       -0.19886954195111       -0.67710087204378
C           -1.20221940896523        0.65621576314817       -0.53674570505642
C           -1.05474997525745        1.46555765949706        0.57403476389532
C           -1.99580305723858        1.45087273303356        1.58793483827101
C           -3.08726761675018        0.61746718363313        1.47048725209481
C           -3.25071313292593       -0.20341784545259        0.35275343592493
C           -4.50561846635804       -0.96145577390422        0.49014871828856
C           -5.10866180059940       -1.87860184122107       -0.36021356597186
C           -6.30839014892191       -2.45056415391377        0.01059910337506
C           -6.90953159933658       -2.11578654238028        1.21383217381556
C           -6.31938381577746       -1.19954147608890        2.06528880618144
C           -5.12037053541067       -0.62528053911427        1.69851684266452
C           -4.26001590256942        0.40503667359461        2.42590059699209
C           -3.81475885174357       -0.07218841213603        3.80789676812263
C           -3.08225825937081       -1.18208254609037        4.17322578632464
C           -2.80779729573458       -1.38905793483862        5.51287551475794
C           -3.25949315385816       -0.49727853673759        6.47349201729303
C           -3.99111967125357        0.61732070040601        6.11373834659796
C           -4.26909127421168        0.83116427125922        4.77103939823688
C           -5.00831407425960        1.91855579325230        4.10818928902520
C           -5.64090630140560        3.03327145338880        4.64021236963161
C           -6.27547534756797        3.91135553610834        3.78392653542002
C           -6.28372651481493        3.68603718037285        2.41601304866036
C           -5.65528428143153        2.57682535830505        1.87961636971523
C           -5.01794213416903        1.69721176282328        2.72932875658174
C           -2.11592878126652       -2.42435534692152       -1.80496975398923
C           -2.27619575128698       -3.23800572447997       -2.90527043347431
H           -2.87714529058009       -3.35118316470895       -4.95015062692782
H           -3.43807590042380       -0.96282720758338       -5.09976271293095
H           -3.16125701616210        0.49013962625936       -3.13274464478382
H           -0.46089348832878        0.67405784683186       -1.31717768518189
H           -0.19751638855348        2.11401394777600        0.65267067922193
H           -1.89123587842004        2.07530709873732        2.45794858811732
H           -4.63896921856694       -2.13318283199575       -1.29244393702450
H           -6.78182710743586       -3.16574948489589       -0.64210972123929
H           -7.84605781844016       -2.57271590151177        1.48899438818275
H           -6.77690821914364       -0.92900497031182        3.00085774141583
H           -2.73659470636569       -1.86622963558854        3.41805058428455
H           -2.23719344208624       -2.25304726646971        5.81205209302661
H           -3.03692256826683       -0.67542124879831        7.51289232673708
H           -4.34382020204975        1.31502180159373        6.85282155736137
H           -5.63054091453634        3.20048260768461        5.70292288903641
H           -6.77013419863083        4.78138838775815        4.18396006075769
H           -6.78515529728424        4.38159823789294        1.76307218479356
H           -5.65612443982720        2.39028271858983        0.81989912095929
H           -1.75227830099988       -2.82863827374335       -0.87599111064920
H           -2.03337763786241       -4.28597645066533       -2.83899456442079
