50
 energy: -11.054463026843 gnorm: 0.000437027536 xtb: 6.5.0 (97a52f5)
C            0.53548488889785        1.24647376636372        0.10541764513694
C            1.31997626230581        0.12995764301482       -0.05443531791769
C            0.69853769933753       -1.08972831777622       -0.07750988809910
C           -0.68536497812300       -1.16482009924871        0.05361556141754
C           -1.33302732770829       -2.49881231865022        0.00871330476648
C           -1.02041333844857       -3.47006075032245        0.96124499182450
C           -1.58000767683681       -4.73219349463174        0.92011758778014
C           -2.46619578013869       -5.07763739535969       -0.08383497433576
C           -2.78893084471000       -4.13741259513636       -1.03817509967883
C           -2.24546247899384       -2.85131285581486       -1.00030188598091
C           -2.74709749883278       -2.08660892970766       -2.15412131054418
C           -2.50919517220937       -0.77644184328303       -2.54474831708311
C           -3.09916205625513       -0.29788066970374       -3.69568449831170
C           -3.92805496967067       -1.10944573787346       -4.45382148632940
C           -4.18036259024848       -2.41361845112089       -4.06893205338715
C           -3.58866405160971       -2.89617361237921       -2.92053598735575
C           -3.67650592521770       -4.27498492488931       -2.27318688582800
C           -3.20409302836426       -5.38999788666941       -3.20539391168691
C           -1.99121145511584       -5.56709762614824       -3.83715537644858
C           -1.81127232678973       -6.68209773585724       -4.63504896555802
C           -2.83071413119840       -7.60726477019730       -4.79771804627254
C           -4.04765410875789       -7.43507664129909       -4.16815566213242
C           -4.23462545988905       -6.31784827162402       -3.36673173623434
C           -5.40547979984643       -5.88458328258514       -2.58614055776273
C           -6.65322923410363       -6.47222298153781       -2.43451924430908
C           -7.58958360944486       -5.84958396002275       -1.63329210020658
C           -7.29146938901990       -4.65852759823732       -0.98969467798513
C           -6.04904088551473       -4.06863409255012       -1.13552029262596
C           -5.10908537800998       -4.68563369368742       -1.93396652223828
N           -1.45093640997822       -0.07854085151122        0.22147666855032
C           -0.82271493682850        1.08486269487756        0.23857742590401
H            0.97754451242466        2.22916927015430        0.12878456132802
H            2.38967739357147        0.21159965345658       -0.15944872781069
H            1.26684762559905       -1.99472106879699       -0.20745291693183
H           -0.32429809885668       -3.21755937460734        1.74257845160561
H           -1.31750067617433       -5.45816711979259        1.67207868690938
H           -2.89604345940817       -6.06256588797813       -0.13645830188416
H           -1.89008653972285       -0.14442155522767       -1.93699967021950
H           -2.91846702729453        0.71877822767260       -4.00431618597513
H           -4.38397974927433       -0.72017681653953       -5.34936067754924
H           -4.82428671703498       -3.05261667968909       -4.64745587570023
H           -1.20732701496726       -4.84258463977787       -3.70160959529970
H           -0.86807120793919       -6.83289008061648       -5.13413708467979
H           -2.67170079993801       -8.47131572521274       -5.42187303545085
H           -4.84356454169737       -8.14865884820628       -4.28882951368528
H           -6.87607266389586       -7.39678882466616       -2.93735948132230
H           -8.56300608713438       -6.29480239998086       -1.50783004872018
H           -8.03536724007073       -4.18667936820129       -0.36888229162015
H           -5.80615531475089       -3.14487739345162       -0.64017605870950
H           -1.44246640211363        1.95913591503047        0.36806937864489
