30
 energy: -6.660714763986 gnorm: 0.000231089618 xtb: 6.5.0 (97a52f5)
C            1.33340062107233       -0.23533050938601        0.19321922772098
C            0.88998617301854        1.02369811988822       -0.15881453901861
C           -0.45500651518031        1.25716648442460       -0.34151182618894
C           -1.38766795481363        0.23372144180520       -0.17187735158654
C           -2.83049207606990        0.48040896869854       -0.37480248383358
C           -3.79551219390135       -0.10957196537515        0.48357627600773
N           -5.09225278274442        0.01288372288858        0.41653728310843
C           -5.53891315729140        0.79828374976174       -0.60344293720885
N           -6.81442083976441        1.07661762594186       -0.90210176952107
N           -6.77767747845992        1.87131963165725       -1.97720859925760
C           -7.84087184046664        2.43089589209112       -2.68269024211295
C           -7.60572431909018        3.21266709280451       -3.76449792109677
C           -6.29053295080983        3.47616803234898       -4.19651304792724
C           -5.22614052858682        2.94600652495958       -3.53001216894482
C           -5.48000993828366        2.14063919043129       -2.41599560813322
C           -4.65548244239632        1.44007213555556       -1.51808439399084
C           -3.27775000555247        1.27998859735408       -1.39958878733092
C           -0.91993050488633       -1.03113759146075        0.18578375380164
C            0.42603799374927       -1.26141204055205        0.36457353261165
H            2.38638834189332       -0.41715311641967        0.33322456962697
H            1.59783131466158        1.82580409685806       -0.28957515677154
H           -0.80010377643791        2.24224602786208       -0.60380576899449
H           -3.42556277175550       -0.71743176214443        1.29331396243862
H           -8.83808491239774        2.22082556519188       -2.34318510072178
H           -8.43376847826036        3.64010615421210       -4.30540802162343
H           -6.12863599904204        4.09993117991242       -5.06006138111953
H           -4.21360246333064        3.13166132963792       -3.84182608074827
H           -2.60230113283175        1.74451873339182       -2.09346048497295
H           -1.62399845829432       -1.83658428821408        0.30298014873200
H            0.77222907625160       -2.24570902412567        0.63453491705637
