29
 energy: -6.508096721460 gnorm: 0.000949276078 xtb: 6.5.0 (97a52f5)
C            1.26827743378392       -0.11079823830855        0.13280007893707
C            0.77743514958794        1.02808661023664       -0.47298236166089
C           -0.57907977051013        1.18715010138270       -0.64434184771931
C           -1.47775482304901        0.21603860355398       -0.20739431592197
C           -2.92205188355595        0.42037567431016       -0.41519574586228
C           -3.85738425245092       -0.26270698524650        0.40903305208341
N           -5.15174041030212       -0.18948574641651        0.33915415379946
C           -5.55863048582650        0.64495988857260       -0.64512135889292
N           -6.81873244987191        0.94383373975152       -0.98549340881302
N           -6.73163328052995        1.80892854537043       -1.99864030768238
C           -7.75904127986482        2.44091182777505       -2.69510465514892
C           -7.47100605425774        3.30960026659408       -3.69419432889470
C           -6.13566860954598        3.59296432910498       -4.04638781347971
C           -5.10652358339176        2.99623209222811       -3.38316565406428
C           -5.41544681567689        2.10276250248490       -2.35315357512692
C           -4.62857210500939        1.34498231215490       -1.46922309464919
N           -3.29625158652346        1.25629266019462       -1.36875653096439
C           -0.96155615062420       -0.93307963902572        0.39460989320869
C            0.39603183499875       -1.09080309238972        0.56220108938030
H            2.33029391985234       -0.23728883402570        0.26530773500320
H            1.45676032156359        1.79245440785918       -0.81308888658574
H           -0.96705542601046        2.07118028005852       -1.11948202018613
H           -3.47078950160860       -0.89118376166650        1.19469578951181
H           -8.77137950673167        2.21576704080554       -2.41473246608618
H           -8.27092683651317        3.79344986023526       -4.22975204866898
H           -5.93155578963232        4.28712586478406       -4.84474367624435
H           -4.07915036848259        3.19797457374484       -3.62924468439282
H           -1.62841631938973       -1.71793178031184        0.70438541508978
H            0.78018862957329       -1.98520310381074        1.02497157403123
