27
 energy: -5.742575960537 gnorm: 0.000675680557 xtb: 6.5.0 (97a52f5)
C            1.28952483182365        0.00575440900655        0.32861958067180
C            0.83977780923222        0.93113606090725       -0.59087090845821
C           -0.51114000989215        1.08631737844548       -0.81409838227642
C           -1.43856257015456        0.31364979557288       -0.12003784657401
C           -2.89279361790107        0.45633754860165       -0.33237126687395
C           -3.45197679810978        1.04823187122721       -1.42800898869122
S           -5.15848017984712        1.01696461222944       -1.31622204880549
C           -5.03087456300495        0.18549493892124        0.22668304520826
C           -6.18123871760963       -0.21783331935068        1.01081787760381
C           -6.03589966629860       -0.88605662802551        2.21670367275110
C           -7.15336840364956       -1.24713392561224        2.92802678228251
N           -8.39940914439561       -1.00596144913805        2.55063784576738
C           -8.52882200813622       -0.36652934465388        1.39818470692964
C           -7.48311774729408        0.04059548958665        0.60751097945525
N           -3.79597911561137       -0.02913911686709        0.59014554399911
C           -0.96772674477937       -0.60997902474077        0.80649328620484
C            0.38314956087200       -0.76407166602508        1.02835336918583
H            2.34655154614425       -0.11406320867436        0.50137467435152
H            1.54752182155882        1.53530525560825       -1.13425711550281
H           -0.85672712658001        1.81830479365576       -1.52226566122067
H           -2.91519682325210        1.46739855148412       -2.25500120397435
H           -5.04832738095539       -1.11196093499847        2.57901195409174
H           -7.03215426289090       -1.76729702838612        3.86670435863762
H           -9.53945981147289       -0.16111229363101        1.07824536572275
H           -7.65826378465810        0.55761078505875       -0.31947503367340
H           -1.68099935296907       -1.20492135184119        1.34954280332665
H            0.73244225982765       -1.48566219835958        1.74828260986365
