47
 energy: -10.402827738467 gnorm: 0.000729907905 xtb: 6.5.0 (97a52f5)
C            1.27475595017735       -0.47530928268212        0.63057757979328
C            0.87969422752672        0.57781311871988       -0.17048643138759
C           -0.45870678114411        0.86019548808996       -0.32653191993925
C           -1.43161889813218        0.10273367316458        0.32448220339084
C           -2.84744025582883        0.43276827947095        0.13698288821995
N           -3.32052038473986        1.02278905833368       -0.96625371421718
C           -4.64215376924270        1.17573991372622       -0.80692778940236
C           -5.53068280230355        1.76058489284439       -1.80317400325657
C           -5.44019076922599        1.35743559540587       -3.16597049562698
C           -4.48944897913607        0.40660775835614       -3.59724185028527
C           -4.43410990106356       -0.00484806469285       -4.89393679838062
C           -5.32821521739422        0.51549606756995       -5.84001955885312
C           -6.25939408963119        1.43639537740591       -5.47266253270533
C           -6.34759346075430        1.88544752221272       -4.12921887718004
C           -7.30317311421402        2.82203943204434       -3.73627172655807
C           -7.38660062097053        3.26742739247661       -2.41733263638270
C           -8.33310123755096        4.25129159541113       -2.02883552833338
C           -8.37574298989011        4.71126751147794       -0.74973457849862
C           -7.47869201825058        4.22038838480645        0.20890714877520
C           -6.56543899069735        3.26779545723936       -0.12668635600882
C           -6.49430191211426        2.74441679565666       -1.43670457393358
N           -5.06294005348501        0.64617825391740        0.43151733497778
C           -6.29258379941060        0.46432244566143        1.03705356647665
C           -6.36183451005154       -0.09127199188995        2.27358839423190
C           -5.19022023492036       -0.49127660920984        2.93906478799929
C           -3.97311598116644       -0.35526744439044        2.34120295567888
C           -3.91775205948393        0.19499228855180        1.04949557453621
C           -1.01385112276997       -0.96952948943280        1.11421178688525
C            0.32548438494791       -1.25048879059721        1.26720382341181
H            2.32253712204101       -0.69568658282685        0.75346917080920
H            1.61910896026439        1.17874750188156       -0.67411635487636
H           -0.77277937199226        1.67799874689984       -0.95130578049079
H           -3.79378260871283        0.01616471100622       -2.87792115664587
H           -3.69856258545198       -0.73135785328931       -5.19859869476528
H           -5.27351568324193        0.18279844632686       -6.86368739625842
H           -6.94566734705430        1.83509196305090       -6.19974485123540
H           -7.98214497394356        3.21880242808226       -4.46901170999234
H           -9.01503798672211        4.63632574480331       -2.76731268312874
H           -9.09659753963118        5.46198977389650       -0.46995089454709
H           -7.51518590471164        4.60070092286233        1.21663029904685
H           -5.87596596353840        2.90071968194671        0.61156251837657
H           -7.17741227624922        0.76647801424658        0.50670272916185
H           -7.31819205089251       -0.22389446043534        2.75182190307731
H           -5.25920153481278       -0.91222104046322        3.92883573529720
H           -3.07091699163799       -0.63670920705453        2.85266957554688
H           -1.74911920552107       -1.60402397434945        1.57524066501816
H            0.63376533272882       -2.08118944622765        1.88087825215933
