39
 energy: -8.642589825282 gnorm: 0.000905303813 xtb: 6.5.0 (97a52f5)
C            0.55062727056144        0.58261978379758        0.07464532621234
C           -0.12971269851435        1.55623810043893       -0.63002363164525
C           -1.50368282866830        1.51616122215417       -0.71003006225807
C           -2.22823999764638        0.50617539401621       -0.07749453628553
C           -3.68924846176504        0.48434180549814       -0.18899422814901
N           -4.35983790073609        0.99367063691547       -1.24277594803338
C           -5.65234218919125        0.78644403225346       -1.02529795507860
C           -6.71632172322241        1.19107113531611       -1.94442736564783
C           -6.69134609461884        1.08066262507373       -3.32216958707124
N           -7.85950977892530        1.57304565375229       -3.84542160817015
C           -8.65909953019235        2.03023767800304       -2.80757635294419
C           -9.91701028780110        2.64571019963844       -2.79793510832193
C          -10.44608133821659        3.03756987706401       -1.59676235628572
C           -9.74779050889891        2.83693282741713       -0.39562967091044
C           -8.51830769883491        2.23464036036036       -0.38523129189668
C           -7.96392824754210        1.80987827425466       -1.60199754535919
N           -5.86807196890700        0.11685486588330        0.18613285127702
C           -6.98783969701694       -0.37748351495253        0.84072410001623
C           -6.85384890559358       -0.97861339162531        2.04666178159298
C           -5.58255682609937       -1.10843342533491        2.64383468188066
C           -4.46826954545639       -0.65878191617532        2.00708673773561
C           -4.61300834306738       -0.06011282648565        0.73936153494025
C           -1.52216149536344       -0.47822941199580        0.61618427449037
C           -0.14796806754466       -0.43639765412605        0.69236763724887
H            1.62612374843419        0.61388533925151        0.13641746320019
H            0.41519286913039        2.34758067943812       -1.11841710583955
H           -2.03890548925123        2.26971871044957       -1.26109631981485
H           -5.88490157381122        0.65910039311428       -3.89928836782589
H           -8.11411429606156        1.61137748760156       -4.83182726111151
H          -10.44035340795996        2.80682967318052       -3.72334456096338
H          -11.41192261860025        3.51477719708048       -1.57196087228202
H          -10.18658887570514        3.16613395703897        0.53185871210189
H           -7.97063412117955        2.09456078464594        0.52908065765727
H           -7.94560295257498       -0.28396208555414        0.36241945222098
H           -7.72221254228951       -1.35917659224309        2.55846596139351
H           -5.49840008429662       -1.56950919932820        3.61425785722798
H           -3.50038923442916       -0.72720973170859        2.46904187717832
H           -2.05765180953640       -1.29803746811458        1.06030311677204
H            0.38410725139452       -1.20377147599600        1.23057771274665
