69
 energy: -14.981397024950 gnorm: 0.000299218158 xtb: 6.5.0 (97a52f5)
C            1.21929017160967        0.15397287699250        0.75137674191538
C            0.74839969215656        1.32634462867352        0.19422912259365
C           -0.58883913359874        1.45985701525933       -0.10633568592274
C           -1.47960807026862        0.41634579561423        0.13853383885670
C           -2.91347954617635        0.53941719525287       -0.17733260933659
N           -3.89577889163429        0.16999572274727        0.65843327847502
C           -5.03319947360258        0.46330378653744        0.03790675824670
C           -6.35388899212893        0.21388511029458        0.62154866713791
C           -6.43950555428826       -0.08196033449556        1.97768579913500
C           -7.65856545460830       -0.30635862141605        2.55084114746917
C           -8.78721385385379       -0.24979380528863        1.74432031779292
C          -10.14117873092208       -0.49185290373414        2.28976969083750
C          -11.00409269739742       -1.40765423305062        1.68463470991627
C          -12.25640813180513       -1.63905247535422        2.19724327092730
C          -12.70340789620446       -0.95245874499556        3.32549352988962
N          -14.01279661522636       -1.19141717314061        3.85883324427199
C          -14.51667132644861       -2.53288313636954        3.94112721671709
C          -15.86878333239672       -2.80405951581272        3.74759724809753
C          -16.34671356925420       -4.09221543355001        3.83685818449033
C          -15.48410331118208       -5.13330658769465        4.11972912470597
C          -14.13980108383614       -4.88122134011260        4.31157964845572
C          -13.65977630582475       -3.59407669473530        4.22270710291638
C          -14.80695819670022       -0.08860595579678        4.32123716027931
C          -15.63490613545922       -0.21773954679531        5.43343226483388
C          -16.39833889498502        0.84261551790361        5.86748487537196
C          -16.34878776317709        2.05119037954970        5.20048059751387
C          -15.53048026039652        2.19610652081378        4.09731089028694
C          -14.76573570820151        1.13748638420402        3.66192932095909
C          -11.84670976206362       -0.03067584612332        3.92585938642126
C          -10.58806636799045        0.18905314697243        3.42372675673500
C           -8.59209004135079        0.04243283935092        0.39784690536768
N           -7.42871634589692        0.28136413246844       -0.17462316702607
O           -4.83910309841897        1.02356040550599       -1.19816947991573
C           -3.48853476642421        1.07398512803639       -1.35840640358233
C           -2.81088568241221        1.58658863626950       -2.55299843398670
C           -3.41984234737812        2.58608631454591       -3.30556490684242
C           -2.81348108746195        3.08277194951635       -4.43793160461278
C           -1.59208177270224        2.58261986278177       -4.84392459710954
C           -0.98200856653221        1.57917490551989       -4.11737695086093
C           -1.58622250787293        1.08141459569437       -2.98470274349331
C           -0.99084573517534       -0.75316063729331        0.71452412744252
C            0.34712641413047       -0.88384027157058        1.01352808850844
H            2.26643707819770        0.04996311507864        0.98414069432220
H            1.42841752410213        2.13808253350527       -0.00605582002213
H           -0.96058041552933        2.37453268471635       -0.53484262971905
H           -5.53853460564170       -0.12354918109586        2.56401015833999
H           -7.75239630350770       -0.53663729998892        3.59814859297654
H          -10.66783337031867       -1.94396441507353        0.81414022320100
H          -12.91555021534123       -2.34755386002674        1.72690979880186
H          -16.53504296424635       -1.99101266452311        3.51845443752593
H          -17.39549586681447       -4.28869022868293        3.68563109867426
H          -15.85945842635316       -6.14101044113029        4.19077662476585
H          -13.46601261743233       -5.69253062172382        4.53357349681271
H          -12.61527429355262       -3.39031239037945        4.38101257443568
H          -15.66238005052253       -1.15816624329844        5.95526087040205
H          -17.03517631069834        0.72971813897213        6.72953128962532
H          -16.94756369412583        2.88022248006014        5.54048268249383
H          -15.49175333035647        3.13832182350340        3.57555525102408
H          -14.13285279544603        1.24163420190721        2.79811131632505
H          -12.18490527927920        0.49806020713052        4.79973734490930
H           -9.93418572236320        0.90248080133905        3.89477345644233
H           -9.46073504124494        0.09575076022560       -0.23837944457146
H           -4.37444527491714        2.96644953793058       -2.98460899554239
H           -3.29301390134707        3.86202224775074       -5.00742732847352
H           -1.11740054284781        2.97254031678542       -5.72943286158172
H           -0.03173265536105        1.18436588537579       -4.43768776804443
H           -1.11824810651449        0.29026715322529       -2.42577395527454
H           -1.67614946432145       -1.55797143348325        0.91658464941016
H            0.71372737912717       -1.79741270124729        1.45231180883541
