51
 energy: -10.799735100200 gnorm: 0.000740691807 xtb: 6.5.0 (97a52f5)
C            0.91440202828426        0.09668641178634       -0.21908699399868
C            2.44979041849397        0.06697462241852       -0.10412094130666
C            3.06055285688517       -0.41707406846649       -1.43300153785935
C            2.94643118991304        1.50153728737457        0.16229997618671
C            2.85500546000553       -0.89506047274711        1.02382309011239
C            3.55136478102843       -0.47197259302449        2.16025919866048
C            3.89157322693781       -1.35510581606988        3.14191915635408
C            3.56962336421427       -2.72246719468307        3.07313250788745
C            2.86422805841334       -3.16529662709431        1.92947508858370
C            2.52647019544883       -2.22502398581870        0.93701692616571
C            2.51027292771664       -4.55650739673889        1.80120298106196
C            1.80417899829594       -5.04836675752373        0.67117880715702
C            1.47509118883504       -6.35590378923274        0.55021040884108
C            1.82704827508805       -7.28987064154802        1.55596812378001
C            1.49062840425183       -8.64604159579785        1.43732904606472
C            1.83945079262002       -9.53437185519835        2.41686559026334
C            2.52960378572363       -9.10472465508348        3.53910960962085
C            2.88675525384830       -7.77381975573965        3.70821420749797
C            3.61361404340820       -7.30441268606919        4.88497086206862
C            3.99136018406971       -8.16676835580000        5.91328130221191
C            4.67715696381111       -7.70729926213631        7.01758604674143
C            5.00287930166220       -6.37917312759294        7.12353654455073
C            4.64836123547003       -5.47475519412817        6.12311511946847
O            5.00329333070980       -4.14848135898956        6.28561853561111
C            4.66326999814664       -3.22294904750360        5.31755895584347
O            4.96978694023418       -2.04877365170045        5.46763841881249
C            3.93221517100012       -3.65428011857873        4.10804231597424
C            3.58772964270031       -4.99365923914638        3.97074445393204
C            3.94709612375731       -5.93512636636115        4.99187104036837
C            2.87408355997746       -5.45504037636673        2.81709881080887
C            2.53061071338877       -6.84038703845988        2.69800261612110
H            0.59552389923399        0.78382968500114       -1.00189785912781
H            0.46488650870535        0.42085957124474        0.71872408366957
H            0.51578269761737       -0.88803839341412       -0.45782997612619
H            2.81292391241886        0.26410587613831       -2.24616517309916
H            2.69143789559644       -1.40471494226123       -1.70437106285263
H            4.14585298587885       -0.47407654452499       -1.35894300429556
H            2.65956801689391        2.16622440526573       -0.65183616525048
H            4.03219858054208        1.53144281146097        0.24483419988842
H            2.51697194348351        1.90189350091257        1.07978612071021
H            3.82463906530495        0.56262454691119        2.26673081159139
H            4.42576124805347       -0.99417157314836        3.99940905655338
H            1.98739149625019       -2.55063848141707        0.06953204776914
H            1.51924297814973       -4.37429118287431       -0.11498411402185
H            0.93957027883808       -6.70374151173027       -0.31626553767964
H            0.95484584394454       -8.97971888667210        0.56546579232021
H            1.57723406807146      -10.57489480213966        2.31588359582477
H            2.78935723736191       -9.82903185356000        4.28875810051166
H            3.74787279236642       -9.21143251457258        5.85621514362225
H            4.95743591512977       -8.39323553534554        7.80025011952622
H            5.53813422181906       -6.01007946925377        7.98030355288045
