43
 energy: -9.161715176493 gnorm: 0.000519455428 xtb: 6.5.0 (97a52f5)
C            1.39055895115849        0.16112943039435        0.62047240259929
C            0.90983091318966        1.26103847089506       -0.06181641587135
C           -0.43479073826289        1.36861078746310       -0.33849776966780
C           -1.32554749123777        0.37097601123267        0.05505686306548
C           -2.76808925512902        0.47259751119859       -0.21392705206446
N           -3.71147630466201        0.00308568323861        0.62898609902152
C           -4.88803778952283        0.32350278804288        0.09461075944347
C           -6.17353083739105        0.00396805132492        0.66673646563309
C           -6.38317368958629       -0.65644381351828        1.84482406585737
C           -7.74871077245761       -0.83372269719379        2.16350155597980
C           -8.61033962936992       -0.31349893178653        1.23472942612728
C          -10.05142055557638       -0.34760438224369        1.29335294485396
C          -10.80813797818838       -0.87206187139740        2.30413622637611
C          -12.20875775673875       -0.76522943290501        2.08644270173933
C          -12.52781081245872       -0.16397286315044        0.91888105912105
S          -11.10331684592228        0.29067295938971        0.05147314816021
S           -7.69803594261124        0.41526908084198       -0.06502652476007
N           -4.72920651708140        1.00197679611207       -1.09817853956732
C           -3.38789479370899        1.09414414274826       -1.32601361373452
C           -2.78375433614042        1.66006150388020       -2.53558141092536
C           -3.35050831105475        2.77947087283635       -3.14264537968150
C           -2.80450806984409        3.30997700278553       -4.29023269543153
C           -1.68802510912272        2.72930036850386       -4.85884428701740
C           -1.12054125218462        1.61230461527763       -4.27815605387041
C           -1.66359306318438        1.07935373578750       -3.13070854092626
C           -0.82487550291557       -0.72377300993532        0.75520295020554
C            0.52036953095027       -0.82914691230715        1.03104430638014
H            2.44310820306832        0.07791189483681        0.83654548828305
H            1.58754141436597        2.03745458156223       -0.37707037816867
H           -0.81245688748543        2.23311647237466       -0.85591973728158
H           -5.57406233783000       -1.00529439416176        2.46723109209265
H           -8.08195949208196       -1.33545196017093        3.05828317999106
H          -10.38264660374365       -1.32446747470116        3.18613524939348
H          -12.94434252097305       -1.13186725014350        2.78788768805396
H          -13.52418147498026        0.01453529273019        0.56080222124471
H           -5.47964532556570        1.30690534231262       -1.71684681589664
H           -4.21882279782924        3.23132866885169       -2.69559943116041
H           -3.24966931621140        4.17937442024325       -4.74572089708563
H           -1.26213809499616        3.14541586141287       -5.75711627906153
H           -0.25222286980463        1.15600022802037       -4.72453908814109
H           -1.23116348328685        0.20091043216863       -2.68413434164836
H           -1.50844106184188       -1.48989448584891        1.07703269077320
H            0.89375660825551       -1.68476352700340        1.56956666757551
