54
 energy: -11.835651338083 gnorm: 0.000172447544 xtb: 6.5.0 (97a52f5)
C            0.86941782659766        0.41349511665878        0.50826880909427
C            0.27786048695196        1.47551530271730       -0.14647443601647
C           -1.09445710240115        1.57367763443057       -0.20408195988778
C           -1.90312559432047        0.60428622244130        0.38721526226265
C           -3.37124051755328        0.68727388023868        0.34105211661814
N           -4.16816716994581        0.27620827292035        1.34765750556360
C           -5.41901123157252        0.52733234774067        0.96786497246954
C           -6.59472225752869        0.22147816244363        1.77365975718005
C           -7.87514974741277        0.22591970630684        1.22182793682970
C           -8.97153721455587       -0.08350087662069        1.98914973711894
C           -8.83678570708382       -0.39328474520460        3.34387398005689
C          -10.01299068749613       -0.74521101172862        4.17090822288262
C           -9.99130035195259       -1.87742406214726        4.95201425787586
N          -10.99135172912044       -2.33029054405350        5.72116114208005
C          -12.08141299294342       -1.61332567714286        5.71230760085979
C          -12.26545227155149       -0.42395795751530        4.98115036475607
C          -13.47087896669873        0.31292574812935        5.02451478850975
C          -13.59799119132076        1.47105833871464        4.31829248522383
C          -12.53249705367744        1.94989576939076        3.54814882018370
C          -11.35871638921931        1.25683604853138        3.48647357417644
C          -11.20066643115937        0.04423961269563        4.18886678445774
C           -7.55274212322893       -0.40151660748072        3.89200819266860
C           -6.45537749761962       -0.10344188432980        3.12176702306447
N           -5.45388470707427        1.10856048357201       -0.28660165526450
C           -4.16267836355880        1.21249317345068       -0.70889606642070
C           -3.74566908260340        1.71460298122323       -2.02303041328852
C           -4.38050233656718        2.82053981358362       -2.58538426598923
C           -4.00319759533927        3.29511244394867       -3.82197503359859
C           -2.99167342596538        2.67060020253348       -4.52452844915899
C           -2.36035542418210        1.56572017207887       -3.98846440929608
C           -2.73435503786225        1.08900842743431       -2.75208128055817
C           -1.28921572616625       -0.45096005122606        1.05720879041254
C            0.08353519965926       -0.54747001118431        1.11270843739311
H            1.94357657234498        0.33638961049841        0.55047790610465
H            0.89103641040133        2.22892475601880       -0.61326220552630
H           -1.55642520497240        2.40655773673588       -0.70475622957083
H           -7.99717227331249        0.45483154301824        0.17833066151532
H           -9.95052594496885       -0.11195413091221        1.54260827766501
H           -9.09692183860113       -2.47970046854129        4.94110827740645
H          -12.89753562524982       -1.96499933015798        6.32265430317328
H          -14.28617120456148       -0.05283768203770        5.62440329089978
H          -14.52078069309084        2.02651706559556        4.35553796989216
H          -12.64200899411619        2.87311662477434        3.00317416793448
H          -10.53660221644118        1.64235804813582        2.91061826231914
H           -7.43209416140569       -0.64021636515658        4.93457273868133
H           -5.46924648042408       -0.11350905734646        3.55186935471007
H           -6.28110001149437        1.38811103673882       -0.81289075191833
H           -5.16574896710503        3.30751563183914       -2.03386549963346
H           -4.49785232953505        4.15577715475632       -4.24168015293509
H           -2.69690577775273        3.04390793856590       -5.49164955854663
H           -1.57405747794097        1.07533082475876       -4.53867615255943
H           -2.25030355173834        0.22246084316971       -2.33607199325382
H           -1.90719245565982       -1.19550678487601        1.52793934110224
H            0.54464464010872       -1.37405142816333        1.62817540028146
