63
 energy: -13.733198870853 gnorm: 0.000240503555 xtb: 6.5.0 (97a52f5)
C            1.08766431918214        2.03945682913481        0.90276554637617
C            0.49029951997973        2.48067436164242       -0.26140797635331
C           -0.79267425766139        2.08790996556743       -0.57113985209565
C           -1.50117973209437        1.23813224620505        0.27715101133528
C           -2.87342944715623        0.80547886157650       -0.03363782764030
N           -3.84394645584473        0.69110210378084        0.89674035467158
C           -4.94343195168053        0.31061240852598        0.24894125196810
C           -6.23345590667479        0.09266282652400        0.86116486678236
C           -6.60378605194238        0.50738823182982        2.11074331416355
C           -7.94015326251502        0.19202688188692        2.44225798042635
C           -8.60504270994977       -0.49083252759114        1.46124078210145
C           -9.97609490131592       -0.94269742986856        1.52849788205613
N          -10.89022453558800       -0.48183601838450        2.38017028191144
C          -12.03177951179044       -1.14882282446324        2.11190773831605
C          -13.28919972779523       -0.93006114796116        2.84542757063582
C          -14.13533765818000       -1.98657212909551        3.17913956848009
C          -15.30952993443100       -1.75770407393042        3.86120365101474
C          -15.65827838172402       -0.47302770006687        4.22857211058269
C          -14.82496025104871        0.58322370042336        3.91779805482718
C          -13.64917366667440        0.35706801205654        3.23737168075435
C          -11.81417726151534       -2.06456488478147        1.05368291603298
C          -12.76286596283528       -2.97202611437856        0.40184369215056
C          -12.34551909428054       -4.23292981046403       -0.02170904057127
C          -13.22616916365596       -5.09770643848089       -0.63253621523850
C          -14.53760866113239       -4.71828572218232       -0.84054598887607
C          -14.96547652446301       -3.46799444500667       -0.43958764261872
C          -14.08807731868372       -2.60121211811760        0.17242113139751
N          -10.50473340380723       -1.91646887497774        0.70244010675885
S           -7.55672092829862       -0.74107392595661        0.09100199477383
N           -4.70631906535422        0.17461392339277       -1.10558464682103
C           -3.39438928593331        0.48469224941578       -1.31101963082817
C           -2.71600165437397        0.44818596950698       -2.60956523032868
C           -3.39206539672867        0.84813953002704       -3.76130840373958
C           -2.76800418705077        0.82396140366986       -4.98861588152737
C           -1.46029564430495        0.39244916058441       -5.09196454284463
C           -0.77902576417439       -0.01995441838269       -3.96368051637394
C           -1.39959914936998        0.00357725287057       -2.73479411802718
C           -0.88895997878692        0.81562576774606        1.45461737873197
C            0.39481682647494        1.20892143799908        1.76121587961951
H            2.09285250962864        2.34530294260973        1.14273203626337
H            1.02888195800603        3.13344543824407       -0.92871369809037
H           -1.26364465271641        2.43786039627812       -1.47326293916838
H           -5.93679229341655        1.04433063944654        2.76681022682417
H           -8.39980250836954        0.45462815574500        3.38213083106139
H          -13.85800474663726       -2.98764617720453        2.89799878427365
H          -15.95769080127675       -2.58259744270041        4.10798069037072
H          -16.57910619287339       -0.29493559628941        4.75946697974453
H          -15.09539980655281        1.58574593485260        4.20659207610455
H          -12.99543434633819        1.17571542296214        2.99133625824820
H          -11.32485606021877       -4.52840411141370        0.14836689426398
H          -12.89187119424153       -6.07300440643988       -0.94655225036669
H          -15.22611244263726       -5.39691031471927       -1.31695512161393
H          -15.98792998815107       -3.17039060274535       -0.60536743353019
H          -14.41745220520824       -1.62340105068455        0.47801081314813
H          -10.01106757755827       -2.39901070023031       -0.04751356967822
H           -5.38581457131843       -0.11917344959061       -1.80618687116380
H           -4.40829924042924        1.19165265923960       -3.67627578646863
H           -3.30023790206592        1.14459547380554       -5.86926113580278
H           -0.97235323809760        0.37640678091672       -6.05277160075865
H            0.24021811404244       -0.36047054659887       -4.04516905929991
H           -0.87313663617555       -0.32530208963675       -1.85572837066329
H           -1.43442952542449        0.16867161276059        2.11941475155136
H            0.85937947115973        0.86721851109299        2.67167826284825
