64
 energy: -13.962630050580 gnorm: 0.000655974515 xtb: 6.5.0 (97a52f5)
C            1.24951137688970        0.26221879458439        0.78130213503318
C            0.77670152912598        1.38274031172983        0.12834097211486
C           -0.56018202792501        1.48692941019211       -0.18379579680313
C           -1.44898160378111        0.46480539464048        0.14394446086739
C           -2.88370094497508        0.56657178436028       -0.17334478261832
N           -3.86093622665431        0.22496104554244        0.67869335784979
C           -5.00068328807292        0.53006092022756        0.06766302709332
C           -6.33705572645164        0.31701398436634        0.67508773768862
C           -7.01496016334128       -0.88769684661794        0.49087993507928
C           -8.25211195328793       -1.08412026646658        1.05236865633725
C           -8.85334649941128       -0.08428612441875        1.81149330438621
C          -10.16934469578021       -0.30676183027525        2.40172546093403
N          -10.84205355829877        0.61452980849990        3.08150835780119
C          -11.98966339459392        0.02982244957378        3.45818270416281
C          -13.00675462255327        0.68660899049772        4.29663983724715
C          -13.62367948098583        0.01388488356505        5.34974311234202
C          -14.55996719866825        0.64735516711693        6.13582821314544
C          -14.89235892767069        1.96460385288589        5.89089227760563
C          -14.28149797893688        2.64903863527098        4.85919403753118
C          -13.34426032009476        2.01816571863150        4.07155957921125
C          -12.01437094556714       -1.29930762506778        2.96305998320168
C          -13.07986434269745       -2.29936949190060        3.08338671865614
C          -12.74912295217680       -3.65030703745949        3.11143310189007
C          -13.72974440453066       -4.61326841317662        3.19956215390045
C          -15.05895266422749       -4.24347302530303        3.25095755420099
C          -15.40479095531767       -2.90750150543326        3.20877125723806
C          -14.42615314013843       -1.94301637457308        3.12118921649803
O          -10.83982157342524       -1.49957932835669        2.30753387562498
C           -8.17978374878000        1.12105545928426        1.99215701036184
C           -6.94132249509409        1.31952536115597        1.43361606066729
O           -4.81164113377432        1.06416090030613       -1.18325380508109
C           -3.46426609320495        1.07818895950615       -1.36216159414192
C           -2.79032252503710        1.52738732559484       -2.58448142967310
C           -3.38490972561843        2.50722411673313       -3.37279045671349
C           -2.78292788017579        2.93622941281150       -4.53492034975833
C           -1.58093713651976        2.38704656725585       -4.93478280755717
C           -0.98614178596803        1.40137294451343       -4.17285432817842
C           -1.58663022742773        0.97039611273890       -3.01129190498144
C           -0.95825450459682       -0.65072520415571        0.81647305985443
C            0.37954042323209       -0.75224734970023        1.12753993021252
H            2.29623128539740        0.18142088339581        1.02464891898205
H            1.45419322266583        2.17772808644267       -0.13685397953201
H           -0.93338208009340        2.36401567275118       -0.68343326818645
H           -6.55448909481737       -1.66068823277882       -0.09985402243472
H           -8.77646481999250       -2.01364832228497        0.91169306191929
H          -13.35476533365513       -1.00973409734660        5.54511977403269
H          -15.03244288547488        0.11452082002745        6.94470983196721
H          -15.62469298355912        2.45963350368475        6.50735211372258
H          -14.53769172704433        3.67874729172727        4.67095185121802
H          -12.86214348232726        2.54715187511628        3.26796776115458
H          -11.71077503649178       -3.93006702717794        3.06201591663667
H          -13.45951374023307       -5.65615488122259        3.22576151978280
H          -15.82589808064077       -4.99749650480340        3.31907953661885
H          -16.44261129758970       -2.61904980295461        3.24123199723993
H          -14.69524596377809       -0.90259216155249        3.07051555216213
H           -8.64558171450609        1.89453999274343        2.57725027144578
H           -6.42231151946494        2.25212340053462        1.57278656678545
H           -4.32581734987858        2.92461532378372       -3.05766131266940
H           -3.25149427684024        3.70014595756152       -5.13336782815118
H           -1.10991871434395        2.72397291854713       -5.84362939411757
H           -0.05179641261489        0.96695401624470       -4.48858136199518
H           -1.13293444845320        0.18941382620425       -2.42675900337451
H           -1.64170137998807       -1.43621434825320        1.08802117528861
H            0.74755135024716       -1.62403607910417        1.64310448832572
