58
 energy: -11.971187001107 gnorm: 0.000685181727 xtb: 6.5.0 (97a52f5)
C            1.28887575307644       -0.34449131610061       -0.15327930994388
C            0.72645996181652        0.26042888101821       -1.25992358398015
C           -0.63605240785294        0.45386068476023       -1.32244328715666
C           -1.46177394418647        0.04466171688760       -0.27963882944710
C           -2.91909295334386        0.25528471775324       -0.34686264803273
N           -3.37552324783306        0.91968951369585       -1.40762263268608
C           -4.69176001049866        1.12313882858734       -1.46064337828275
C           -5.23950772527180        1.86419988712616       -2.60830445343805
C           -4.44213770056435        2.06577813348097       -3.73518746127809
C           -4.91224773809989        2.74956334515831       -4.82798455948201
C           -6.20862723385009        3.27200689014224       -4.84139707557567
N           -6.69548594085934        3.96941409773282       -5.95722976027003
C           -8.08207082136332        4.48618426494378       -6.09738612262052
C           -8.22882905395331        4.98875185604137       -7.54453293732707
C           -6.79172983729773        5.14677941914726       -8.07971417189876
C           -5.91637556001463        4.24515767152176       -7.19240517044473
C           -7.00523617615342        3.08177787888996       -3.70844262475305
C           -6.53244476199152        2.39540046836606       -2.61776233087562
C           -5.51384425576876        0.63920931656278       -0.46398206251384
C           -4.95730626253425       -0.04958145489144        0.59366695579420
C           -5.79849639536594       -0.58621904067878        1.67927577108558
C           -5.19114961506220       -0.95399463138195        2.90113076844072
C           -5.91873761055516       -1.45319816221323        3.93555796965742
C           -7.31718569338608       -1.62465473818882        3.81577519159616
C           -8.10683339707250       -2.13963077364568        4.86718430279184
C           -9.45254207326675       -2.29510229259872        4.71282725718704
C          -10.07356821547145       -1.94728500701898        3.50667759754155
C           -9.34173976174235       -1.44753021813566        2.47186046247656
C           -7.94411852006098       -1.27082269696426        2.59694457296323
C           -7.15918007340218       -0.75551067163975        1.54515037952004
N           -3.63998958201713       -0.23545956138890        0.66130333680872
C           -0.87914517864188       -0.56385664444029        0.82793431194615
C            0.48364929329061       -0.75574886941764        0.89049384348177
H            2.35511740747331       -0.49406318462006       -0.10432226678381
H            1.35379176579498        0.58115903967482       -2.07546142996834
H           -1.08101040599250        0.92550105427248       -2.18083422817232
H           -3.44181844816842        1.66957352616788       -3.73311502521563
H           -4.28159858488037        2.88399377735440       -5.68870937930610
H           -8.22672508613056        5.29304919436227       -5.37279263474676
H           -8.79671637397008        3.69207251418104       -5.86028895583635
H           -8.79540732873858        5.92704506144708       -7.59759260632640
H           -8.78029477424043        4.25747137813983       -8.14769779960644
H           -6.46839888006267        6.19143120183174       -7.99737137017689
H           -6.71324224506080        4.87769466749720       -9.14073771481593
H           -4.96479052859233        4.71886613271131       -6.93196705657766
H           -5.69353590935610        3.29188832263730       -7.68116267746232
H           -7.99993267457151        3.49077423706771       -3.69303864086428
H           -7.16041094376969        2.28598311332811       -1.75171794515595
H           -6.57315680964269        0.79749899058383       -0.50975311869069
H           -4.12691943935159       -0.82889032840156        2.99743320825903
H           -5.43701366319181       -1.72534793897163        4.85876995547567
H           -7.62989744888435       -2.40886430805625        5.79380783592206
H          -10.04514890169879       -2.68914164313753        5.52218328756122
H          -11.13810121527496       -2.07751136121732        3.39951942088411
H           -9.82011887661807       -1.18079779662204        1.54521799392275
H           -7.64465951717433       -0.51218884267359        0.61894276857049
H           -1.51251035384498       -0.88009615781933        1.63786411046475
H            0.92206597522802       -1.22579214285724        1.75550394735818
