82
 energy: -17.910426726729 gnorm: 0.000677455080 xtb: 6.5.0 (97a52f5)
C           -0.19186349427367       -4.24639923388741       -0.22294239937573
C           -0.35921306970100       -3.28222904892854       -1.19748393667681
C           -1.37978732427667       -2.36333791695125       -1.09086550187039
C           -2.25296882256323       -2.39223712321190       -0.00757633168067
C           -3.34228521617264       -1.40681201488578        0.10759235789714
N           -3.40010957517940       -0.47194094524596       -0.84085830407308
C           -4.37398888934828        0.43007135364597       -0.72643281809694
C           -4.47270029446398        1.49167797483170       -1.74184760171204
C           -3.84407372161213        1.32114915931030       -2.97555052756445
C           -3.91436589791866        2.28645750828119       -3.94906375099885
C           -4.60957292630961        3.47227159677774       -3.71746969737835
N           -4.71423283416559        4.50308988134788       -4.72263410783542
C           -5.98229151727952        4.77464362268833       -5.32120359889526
C           -6.90448619414380        3.75220319546630       -5.52475367575047
C           -8.11206884533048        4.00634435810969       -6.13212112610025
C           -8.41907043764566        5.28788423883378       -6.54196053902939
C           -7.51765653775046        6.31265294672220       -6.33413633544761
C           -6.29698382251898        6.07637144945950       -5.72553514793640
C           -5.34000050005473        7.21827569741153       -5.36020797892844
C           -5.52766085483066        8.37935770878413       -6.34594688293795
C           -5.25000054990928        8.18780120575166       -7.69069145562664
C           -5.42806841502881        9.20673195229085       -8.60336784800884
C           -5.89159609242450       10.43558578298972       -8.18323247744393
C           -6.17743195432980       10.64105182481854       -6.84998055265032
C           -5.99749788432625        9.61970087816863       -5.94050414384718
C           -5.62947433426979        7.66462133119861       -3.91562974129762
C           -4.66866949939924        8.34213326052103       -3.17968000575047
C           -4.92097637362501        8.75760096766126       -1.88883131373978
C           -6.14642785637846        8.50515137906605       -1.31026891601808
C           -7.11718101310578        7.84070025730153       -2.02876818025798
C           -6.86038371851044        7.42928646729013       -3.31990096972794
C           -3.89547497864973        6.69913999118990       -5.41870104005138
C           -2.83784630342512        7.52823899072672       -5.75133387300061
C           -1.53347264473490        7.08328777515331       -5.67615256519053
C           -1.26775085108460        5.79846022316312       -5.24960098233496
C           -2.30499878494002        4.95941130239159       -4.91558166373307
C           -3.62675163803808        5.38618921652978       -5.01029998663155
C           -5.23785139717295        3.64934120454562       -2.48554273486381
C           -5.16958487002308        2.68125015442585       -1.51550344274291
C           -5.27340318177189        0.35937336196841        0.31657975254876
C           -5.14914693108731       -0.65376749150487        1.24417089775950
C           -6.10839228126082       -0.76809427819586        2.36533443196424
C           -7.40948791266714       -0.29210889023249        2.21658809041707
C           -8.29573625299890       -0.39047007192400        3.25571633324328
C           -7.85749628363324       -0.96798692656955        4.42222376752437
C           -6.56130323856884       -1.41998856298989        4.48586713690452
N           -5.68375512621687       -1.33927675359975        3.50003851045420
N           -4.16482443248011       -1.54390146431593        1.14835704251074
C           -2.07120661210055       -3.37070240714099        0.96509699156736
C           -1.04973598123825       -4.28867133513518        0.85859632363107
H            0.60705453916935       -4.96505128645283       -0.30592356372070
H            0.30923772208730       -3.24884049962407       -2.04229380759537
H           -1.51616172925066       -1.60874568310244       -1.84546728266413
H           -3.30360844414300        0.40828408939133       -3.15509366712057
H           -3.45070428788457        2.13156516990319       -4.90749301226493
H           -6.65246858435877        2.75549046364155       -5.20799198423587
H           -8.81688766719148        3.20612146708722       -6.28815767973633
H           -9.36590953828285        5.49068730586892       -7.01495976894061
H           -7.77059793494782        7.31638598409812       -6.62808472032599
H           -4.89335092308416        7.22564893200358       -8.01658684835542
H           -5.20653699625050        9.04111535674511       -9.64501704572331
H           -6.03246094986125       11.23265001048796       -8.89496487417721
H           -6.54280098684706       11.59919894586279       -6.51809072485746
H           -6.22509412718164        9.78303797959014       -4.90211186259213
H           -3.71044823800063        8.54067799282124       -3.62540186318530
H           -4.15947742754087        9.27899591052464       -1.33215591830632
H           -6.34465395560566        8.82713382366884       -0.30090780234595
H           -8.07765191643566        7.64261128471942       -1.58159600356369
H           -7.62317697560674        6.91265025488769       -3.87439819776468
H           -3.04117701409814        8.54003129631971       -6.05618054405278
H           -0.72285076517305        7.74287708139874       -5.93914084131354
H           -0.24938692111637        5.45263546009159       -5.17913622352336
H           -2.10048455437204        3.95843507053603       -4.58234060293403
H           -5.77000832697437        4.56813508312953       -2.30994674545425
H           -5.63971944243408        2.85221846127966       -0.56355336550059
H           -6.06082024580383        1.08233323885857        0.40766606176637
H           -7.72451360517347        0.12969422007497        1.27844464274857
H           -9.30705984542244       -0.02957847970317        3.16050416263310
H           -8.51762398410504       -1.06752571693156        5.26835202096752
H           -6.21229331141295       -1.87777000242304        5.39904148834318
H           -2.74327766341957       -3.39559746558705        1.80455689341801
H           -0.91935773035243       -5.04032950313921        1.61998019923784
