72
 energy: -16.573197505841 gnorm: 0.000980928670 xtb: 6.5.0 (97a52f5)
C            0.87589781793277        0.16300255225717       -0.14601843724351
C           -0.34062957641949        0.05596351462652       -0.15128141704187
C           -1.75090416617853        0.03403592756779       -0.14258350292673
C           -2.43048729866731       -1.17471136534187       -0.12911358007922
C           -3.81568930441761       -1.23474883858493       -0.10977956836070
C           -4.47425192060324       -2.48205362557782       -0.10070469326356
C           -5.11210138075871       -3.52354150977469       -0.10381645485405
C           -5.90416790337681       -4.69163038160217       -0.11573121836121
C           -5.55992751227965       -5.79887652401136        0.65236329805883
C           -6.34204275027452       -6.93500949285404        0.64007119265331
C           -7.48110322161689       -6.98196204486494       -0.13770018114476
C           -7.83638348604890       -5.89156437112452       -0.90531885486952
C           -7.05407201231311       -4.75601789466103       -0.89598248890379
C           -4.55465564890468       -0.04000923923743       -0.10345653064832
C           -5.96266266126859       -0.08465935332513       -0.07304871671784
C           -7.18246870891430       -0.13461157036520       -0.03729310906162
C           -8.59031084092697       -0.19979329509944        0.00962982450630
C           -9.24271309870644       -1.42808574945297        0.03846539901543
C          -10.61924105409833       -1.49273617348266        0.08395138970873
C          -11.36561593225159       -0.33177285904173        0.10147104193172
C          -10.73293699752736        0.89462314848433        0.07405207254750
C           -9.35642364623286        0.96107449127113        0.02880089271674
C           -3.88576662513889        1.19469011023650       -0.12330906485383
C           -4.62821475701540        2.39364970158833       -0.12495762454100
C           -5.28564431148720        3.42267488327563       -0.13623779363491
C           -6.05828299252571        4.60278756850260       -0.16135506094322
C           -7.29654125526619        4.62555239826863       -0.79515482252952
C           -8.05448100333057        5.77731805480830       -0.81819365901244
C           -7.58683542860703        6.92513763996905       -0.21076835502750
C           -6.35922784182674        6.91931559262667        0.42003430899197
C           -5.60084506403917        5.76793411011646        0.44518505198204
C           -2.48215597082593        1.23359503905445       -0.14319217066121
C           -1.80560925695924        2.46970411504737       -0.16177640588456
C           -1.20692074056445        3.53428905899173       -0.17589964317107
C           -0.50186590370715        4.75575122319963       -0.18711764177482
C           -1.00599860892140        5.87452541230307        0.46808502331999
C           -0.31364990103647        7.06705079933627        0.45971858008968
C            0.89382381335499        7.16066792068046       -0.20216447059460
C            1.40699906352131        6.06002688288888       -0.85814359708565
C            0.71461551810079        4.86756040878423       -0.85273734399156
C            2.27391862755071        0.35527895866335       -0.12673026244233
C            2.80512839015171        1.62016218232719        0.10332612714550
C            4.16929721931460        1.81891480024819        0.12490376707883
C            5.02553187779003        0.75666249410602       -0.08266932300738
C            4.51446144170110       -0.50474114325331       -0.31262951802541
C            3.15006473467912       -0.70487799052240       -0.33476025644338
H           -1.86742825574523       -2.09114553905790       -0.13086991719725
H           -4.67172507249567       -5.75738255027544        1.25940199100024
H           -6.06360443956347       -7.78635721537601        1.23934495647608
H           -8.09223020797594       -7.86981907427854       -0.14598991039489
H           -8.72491498512263       -5.92744150677028       -1.51425716711827
H           -7.32448888879734       -3.90470223917259       -1.49720594208671
H           -8.65523544879013       -2.33012638022336        0.02357282200546
H          -11.11258643055693       -2.45072249080572        0.10637606955110
H          -12.44162439909105       -0.38317418527716        0.13680513120750
H          -11.31506838527361        1.80159137581823        0.08738268023935
H           -8.85754553812868        1.91480329701916        0.00876062699400
H           -7.65462719149436        3.72924454115611       -1.27202402271512
H           -9.01248782766183        5.78109725500170       -1.31198718099479
H           -8.17917951726340        7.82539091921092       -0.23002937282253
H           -5.99243677597157        7.81551740618544        0.89324984259468
H           -4.64278193534901        5.75810202608857        0.93615834347064
H           -1.94789275014017        5.79615882922313        0.98355787657323
H           -0.71600927546378        7.92647149488054        0.97078296815895
H            1.43516298481014        8.09265612032492       -0.20716107943985
H            2.34936841606429        6.13224631327671       -1.37617680070283
H            1.10753699817683        4.00832303653449       -1.36893141095164
H            2.13229789360929        2.44519021435461        0.26288761964561
H            4.56682321273591        2.80461083734064        0.30362961750871
H            6.09193667050707        0.91198741317326       -0.06551556082993
H            5.18265887764268       -1.33458333430273       -0.47546407902933
H            2.74728254958152       -1.68722214102881       -0.51383030598534
