43
 energy: -8.746861069943 gnorm: 0.000978750171 xtb: 6.5.0 (97a52f5)
C            1.76793128667679        0.09047972846898       -0.91742197226857
C            3.12585064566263       -0.18716991979493       -0.24408241829674
C            2.90266332496745       -0.60493970429978        1.22045987021818
C            3.80161130273552       -1.35516285668086       -0.98979670368511
C            3.98570570272450        1.08632379064550       -0.28186630498651
C            3.48718911945615        2.27404570715597        0.26612424073030
C            4.21751235933265        3.43163515061185        0.24013679907283
C            5.49310202080307        3.46177355548566       -0.33349164617524
C            6.02052637389286        2.27616283836101       -0.87649466202302
C            5.24691892031803        1.11022511427360       -0.83749503156919
C            7.32964400795978        2.28307291437062       -1.49697512001562
N            7.79527394595926        1.15253431577302       -2.04822712189640
C            8.94729979031085        1.26262003695320       -2.65555161696996
N            9.71448079521388        2.32771229296819       -2.83395319107611
C            9.25747045846450        3.41473482523772       -2.27370982005962
C            8.07473578595496        3.47425830782241       -1.54495626031950
C            7.55521576529549        4.67727069755753       -0.91130586213627
C            8.19473744355128        5.98604147153804       -0.74456491792328
C            9.51488810007011        6.38117959957366       -1.02462974598731
C            9.90735257045428        7.67786414413817       -0.80128139704725
C            9.01844276203188        8.61426933398882       -0.28221995727834
C            7.73673553904045        8.24356817919797        0.04023790428482
C            7.33489978034942        6.93250133288558       -0.17478767013440
S            5.79375168834310        6.21850355604376        0.22142479254102
C            6.28498967307964        4.65251118351401       -0.37309113728650
H            1.15110115337018       -0.80725472511554       -0.93530450412420
H            1.91024335518891        0.42239119964693       -1.94512089975890
H            1.21212044361089        0.86336877094839       -0.38918363411155
H            2.30376132276549       -1.51309829686931        1.27944338335969
H            2.38553251863810        0.17460134423207        1.77791207519128
H            3.85392285557223       -0.79544720390576        1.71607129624320
H            3.16839058234218       -2.24160422770561       -0.97339624242645
H            4.75050812374148       -1.62149475517812       -0.52578942953678
H            3.98461503378407       -1.09924728507071       -2.03294029654263
H            2.51060730075998        2.27455946952730        0.71749788163198
H            3.82067467489441        4.33724548630250        0.66394164134766
H            5.66801281751493        0.22131996662605       -1.26649597927008
H            9.32128362825006        0.35044384105633       -3.10095691788300
H            9.81609041105034        4.31275802418958       -2.45657453831868
H           10.24377462315672        5.66574773959896       -1.35072885261811
H           10.92002066601017        7.97489814903849       -1.02038015998511
H            9.34270188381781        9.62866291436322       -0.11738458765913
H            7.04321944288477        8.94747399252747        0.46691871474774
