79
 energy: -17.821125956618 gnorm: 0.000301170802 xtb: 6.5.0 (97a52f5)
C            2.57596895948785       -1.01962298816243       -0.52718117077220
C            2.05038892722733       -1.02905113286364        0.74243993863064
C            0.92345063454040       -1.77252200114749        0.96191537190787
C            0.34586034333188       -2.49113498658998       -0.08261982157909
C           -0.86299350188475       -3.27721046958357        0.14408153059669
N           -1.62479706502920       -3.76992111588172       -0.80667755165660
C           -2.63883352555349       -4.40454979407124       -0.16393163642134
C           -3.72001252154828       -5.09808539771226       -0.86234640895912
C           -3.70879157170541       -5.21459244309028       -2.25085411539993
C           -4.71801560332513       -5.87376118088648       -2.90710157047994
C           -5.78081602614561       -6.43569125244743       -2.19630352018062
N           -6.84006997736094       -7.14261513470519       -2.88175244331682
C           -6.89776454796957       -8.56854064477599       -2.73815437502535
C           -5.91067914152930       -9.24705342750513       -2.03185402646293
C           -5.95117639394861      -10.62145267879956       -1.87695649905928
C           -6.98145538877197      -11.35195277885639       -2.42908239079666
C           -7.97207387767156      -10.70262241071770       -3.14486094729681
C           -7.92144012843715       -9.33641976548165       -3.29543869722650
S           -9.13614850920583       -8.61179869779437       -4.18101329159585
C           -8.87961684180083       -6.96562546528700       -4.28134948516371
C           -9.78520678148420       -6.22487956448251       -5.00444715740800
C           -9.62144872979848       -4.85503313509860       -5.11309324697581
C           -8.55282133715356       -4.24646264402588       -4.49057588050917
C           -7.64757149145110       -5.00038548767134       -3.76472868487892
C           -7.78317262632674       -6.37920425169040       -3.64674544164436
C           -5.79245521803795       -6.31437757074690       -0.80517282730175
C           -4.77869161939824       -5.65998995470956       -0.15168731177122
N           -2.54662415589002       -4.34239612178559        1.16162996271856
N           -1.44088232247429       -3.64740142547099        1.37878361950580
C           -0.88613331998531       -3.45356149548701        2.69887651856738
C            0.21366737344135       -4.19489387443007        3.11128497809649
C            0.76458162891176       -3.98800565619715        4.35156548840152
C            0.22643849546871       -3.03359411495908        5.21560372741740
N            0.81942467281221       -2.79742632125561        6.51438534617432
C            1.69439616686191       -1.67170123855236        6.65718765722611
C            1.98581721170308       -0.86381684432394        5.56392158607520
C            2.82692323213736        0.22854419054128        5.68142184085568
C            3.39810652765746        0.53675395532707        6.89760391322212
C            3.12761856839198       -0.25456069350573        8.00054125299827
C            2.29121995595861       -1.33890744255273        7.87398671442843
S            2.00601997996104       -2.26187242491419        9.23551238341987
C            0.98555703605869       -3.53305539435077        8.87505730785443
C            0.65888517654794       -4.39848509110226        9.89281948822165
C           -0.18755255028589       -5.46470720738073        9.64287636706192
C           -0.69639911823569       -5.64753104043953        8.37485477185141
C           -0.36148916902573       -4.77203325216505        7.35697746877729
C            0.48942865589183       -3.69578336051535        7.58078968043401
C           -0.88625435334006       -2.30156712875695        4.79887423436651
C           -1.43598830566253       -2.51216868691706        3.55846852011795
N            0.85612633702043       -2.47465174036996       -1.32416720498466
C            1.94529295620131       -1.74972672330038       -1.50707037207787
H            3.46265291964594       -0.44922059628439       -0.75034494664100
H            2.51071852168283       -0.46738682365173        1.53877380845472
H            0.47484369639074       -1.79374515818377        1.93696320842255
H           -2.89094408408538       -4.78205205797669       -2.79994833994956
H           -4.70110966828603       -5.97398667380368       -3.97822440415149
H           -5.09909864841547       -8.68790309366496       -1.60231586588680
H           -5.17459635604098      -11.12187153090197       -1.32239527647542
H           -7.01485491191160      -12.42208491553610       -2.30805261205646
H           -8.78760740103457      -11.24520576694164       -3.59488873122703
H          -10.61274951806023       -6.73090423447190       -5.47472850491751
H          -10.32717922777450       -4.26920852456598       -5.67852889550204
H           -8.42220437441571       -3.17973474973853       -4.56854187065885
H           -6.82355929132452       -4.51316385675391       -3.27577452996890
H           -6.61186882380184       -6.74343646687381       -0.25552629780343
H           -4.78743926821060       -5.57253615078759        0.92049095593225
H            0.63030608874564       -4.92523273639427        2.43991673754090
H            1.62297802348896       -4.55195498578989        4.67191200986741
H            1.54755557491235       -1.09915991025896        4.61075722587517
H            3.03582676721862        0.84050189877628        4.81957915482700
H            4.05285447554215        1.38741552316674        6.99048244274231
H            3.56064489441287       -0.04194189868457        8.96452015221823
H            1.07131395078710       -4.22671539007524       10.87378773505919
H           -0.44763702627073       -6.14564228841476       10.43636916129917
H           -1.35756019146948       -6.47463377644377        8.17534192823520
H           -0.76544358128107       -4.92056964966358        6.37171394587612
H           -1.30411474060785       -1.56930771705688        5.46723969919322
H           -2.29219312285944       -1.94748065247216        3.23341204038771
H            2.35064820390301       -1.74427230889400       -2.50764352078243
