39
 energy: -8.411959534426 gnorm: 0.000826826608 xtb: 6.5.0 (97a52f5)
C            1.22991737598148       -0.24871487985608        0.24396561895668
C            0.80846077099072        0.46026805086619       -0.86390777920993
C           -0.53327238280457        0.70278882003395       -1.06078702945783
C           -1.47990202407603        0.23940047298577       -0.14910424722201
C           -2.90702781608171        0.48657807302793       -0.33561145241849
N           -3.84463603224639        0.09612409376079        0.52214852169173
C           -5.02574913577936        0.50727296324137        0.01614909521510
C           -6.31897500566145        0.21062904724515        0.65234405934086
C           -7.46400358408728       -0.05172201898269       -0.09844803410991
C           -8.65980401292624       -0.34079720084137        0.52057184065542
C           -8.73394097502438       -0.38313281426024        1.89886593054157
C           -7.60579478951476       -0.14131594762505        2.65744662739982
C           -6.40886516062098        0.14849177736507        2.04069034313197
C           -4.80750616448514        1.20040120942503       -1.19866864197779
C           -5.77089389087838        1.89730905192581       -2.05720762637660
C           -5.59355397908690        1.91472963286215       -3.43945414054692
C           -6.48465885404554        2.57541361018854       -4.25605230005282
C           -7.56598846002778        3.23757823208411       -3.70916767657011
C           -7.74981404735112        3.24282912944210       -2.34061939633437
C           -6.86001209085285        2.58463495346009       -1.52133178689577
N           -3.46104884893360        1.16219315666682       -1.40786842403884
C           -1.03736093727227       -0.47342681791838        0.96273472732809
C            0.30443436498921       -0.71556285702730        1.15656873721363
H            2.27998127443602       -0.43785207816779        0.39634366114388
H            1.53146176917145        0.82458511940488       -1.57537369679130
H           -0.85751280392461        1.25508171299679       -1.92438489482039
H           -7.40114551779026       -0.03315582041356       -1.17253874885814
H           -9.53882676088102       -0.53597698927936       -0.07170736880329
H           -9.67049602030222       -0.60946549358571        2.38187036013582
H           -7.66102338964931       -0.18140373537797        3.73306441270699
H           -5.52434519532638        0.33242548849666        2.62532490514195
H           -4.75207444597244        1.39514427855817       -3.86349406318201
H           -6.33811381377926        2.57596968527188       -5.32378448059637
H           -8.26380400520613        3.75211219328437       -4.34948097616304
H           -8.59113983637293        3.76346064809156       -1.91331034904883
H           -6.99482244387255        2.59844844469554       -0.45374946754322
H           -2.96437109816238        1.60364239279008       -2.18100167473134
H           -1.76369369492497       -0.83165756854582        1.67108146754027
H            0.63230166235106       -1.26820801629096        2.02181394760038
