38
 energy: -8.170242045511 gnorm: 0.000847657845 xtb: 6.5.0 (97a52f5)
C            1.24380948599976       -0.29042493170442        0.16501389517087
C            0.79673389765869        0.47108890045523       -0.89722019527145
C           -0.54924915299603        0.72101383958660       -1.04816094207917
C           -1.46828926409653        0.21160054291547       -0.13759788763708
C           -2.89572377751137        0.48248789133059       -0.30159271420212
N           -3.82397661755547        0.08373070708798        0.55916415665474
C           -4.99460817619305        0.51521272513061        0.06527359366309
C           -6.29844242858965        0.22754518386519        0.68614037894891
C           -7.40919026569865       -0.12107980411584       -0.07976984308461
C           -8.61770483581188       -0.39700595570162        0.51965432619372
C           -8.73784438249101       -0.34005738707058        1.89375161348826
C           -7.64304253965866       -0.01175977442375        2.66811540679635
C           -6.43335419465459        0.26545602117289        2.07085987320399
C           -4.75395000218032        1.22295094858598       -1.14031155412430
C           -5.72350957497950        1.90399051487881       -2.00499164552404
C           -5.49269943161081        1.96903795723153       -3.37515624836261
C           -6.38137759797670        2.61212304609940       -4.20793298184044
C           -7.51068492266782        3.21011051362735       -3.68494430171479
C           -7.74502940897536        3.17005045543774       -2.32486606151210
C           -6.85783906870066        2.52811052960949       -1.49040521875916
O           -3.41303654194415        1.17770283962157       -1.36517134624069
C           -1.00491100130087       -0.55185160284447        0.92850007609613
C            0.34121325693452       -0.80121554446168        1.07697189609879
H            2.29706962128092       -0.48580710592309        0.28254920344411
H            1.50142846474255        0.87009266918390       -1.60822104500958
H           -0.90873155530747        1.31381210220697       -1.87158733505179
H           -7.31017530881313       -0.17530121355412       -1.15005670726268
H           -9.47075485634038       -0.65799718061300       -0.08498134691984
H           -9.68448533979244       -0.55532202837692        2.36171822431500
H           -7.73473469877452        0.02729905993373        3.74118574918230
H           -5.57579502120208        0.52042700302883        2.66878323619290
H           -4.60675976877546        1.50518503585130       -3.77358923229356
H           -6.19437756401380        2.64962170592966       -5.26858817248431
H           -8.20658376993172        3.71158881386170       -4.33733225645160
H           -8.62309438275741        3.64231356486049       -1.91573174178531
H           -7.03129498829614        2.50813495880140       -0.42871894841287
H           -1.71577358063264       -0.94710422897933        1.63280447124649
H            0.69053929361294       -1.39562077252802        1.90525162533235
