35
 energy: -7.631587690193 gnorm: 0.000715821027 xtb: 6.5.0 (97a52f5)
C            1.31056523755616       -0.29559809954294       -0.00206274305670
C            0.83214143651860        0.83850221076622       -0.62809761506632
C           -0.52367038852517        1.06789478149354       -0.69657094183523
C           -1.43119759040924        0.17221066540296       -0.13164071215300
C           -2.86941950106314        0.43996419274732       -0.23205205009944
N           -3.42141611094688        1.13823995862429       -1.23944037644139
C           -4.73296554797622        1.18042250179259       -1.02332346848433
C           -5.67050786550355        1.86810070209420       -1.90864766804962
C           -5.37972812927575        1.99259142712307       -3.26732541114657
C           -6.24755167756637        2.63949908025980       -4.11794092954378
C           -7.41837489706796        3.18469308716441       -3.62834817744705
C           -7.71385231975516        3.08824796441845       -2.28219412157168
C           -6.84905336927932        2.44057592888671       -1.42874996538799
N           -5.08211522199155        0.48024464943457        0.14451006565771
C           -6.27126854211038        0.16234181397052        0.78464999506769
C           -6.25187300727535       -0.53150442277245        1.94899131119744
C           -5.02997735746714       -0.93824474380365        2.51872142287497
C           -3.85316436458648       -0.66783203615896        1.89293686449547
C           -3.88681117222322        0.02815652045588        0.66907002568344
C           -0.92964318334293       -0.97666216535478        0.48227559269445
C            0.42694261968962       -1.20407238431272        0.54749714925507
H            2.37197713434268       -0.47527637436627        0.05173120748878
H            1.52061512932831        1.54474345342550       -1.06296631420007
H           -0.90283582111641        1.94744379397392       -1.18714012312881
H           -4.46448956715538        1.56838912126321       -3.64184485475116
H           -6.01316557501325        2.72078696849118       -5.16689764242363
H           -8.09714507145752        3.69134444880457       -4.29476212362703
H           -8.62082054109844        3.52609422776838       -1.89836010907979
H           -7.05854350597510        2.40802371692161       -0.37465902090637
H           -7.20013170335603        0.44740060615969        0.32677918751800
H           -7.17658736218049       -0.77631113483945        2.44499952009955
H           -5.03169268279540       -1.47086232814144        3.45565787938159
H           -2.91415453871809       -0.95093358184536        2.33237257158366
H           -1.61442244143438       -1.70824691980814        0.87210642216125
H            0.80023749923121       -2.09630763049647        1.02322515324234
