98
 energy: -22.202475653879 gnorm: 0.000979483014 xtb: 6.5.0 (97a52f5)
C            0.47686589105957       -1.65663497640398        1.00658411372871
C           -0.07048955305478       -1.54348609279744       -0.25629364911667
C           -1.22811947682371       -0.82128700753256       -0.44320321019362
C           -1.85956634260881       -0.19907485773272        0.63011405903751
C           -3.09730004412580        0.57232064442617        0.42835770487921
N           -3.63451634407975        1.15623501004140        1.48872107895771
C           -4.74639973609622        1.83370237900648        1.24621108911034
C           -5.39789131610535        2.50199602687721        2.38487870077913
C           -6.55812147024189        3.24915067135589        2.20164075988540
C           -7.16819792682348        3.87301418422171        3.26717367593604
C           -6.63016654859846        3.76142953754554        4.53430252743252
C           -5.47982606998433        3.02333553778670        4.73296377016627
C           -4.86882926285517        2.39895476134906        3.66818472685078
N           -5.32109673284778        1.96041537637632        0.06080809036502
C           -4.69563067180569        1.33230621517136       -0.92203918814059
C           -5.28853862648611        1.42579924056403       -2.26190971695924
C           -6.42548678451970        2.19004764112841       -2.48068212961359
C           -6.99714292362903        2.29138655908156       -3.73563583288827
N           -8.16321185733745        3.11028309640330       -3.91102492758211
C           -8.33751979216078        4.13576717495658       -4.86153696347186
C           -7.45369778540707        4.67976543954749       -5.79224489762078
C           -7.90027504494263        5.67248559347133       -6.62796981506283
C           -9.21439254699884        6.14235354132229       -6.54860654551348
C          -10.09512390629704        5.62737306354695       -5.62817099019246
C           -9.65467068610999        4.61674026197602       -4.77208309448526
C          -10.31156435296078        3.87651620543233       -3.72147263430816
C          -11.61223840873874        3.91154283078626       -3.21635773404839
C          -11.95029806812223        3.04267784063858       -2.20694501760474
C          -11.01708321484431        2.13694666510864       -1.69365053983480
C           -9.73495256873781        2.08916303206751       -2.18197393959955
C           -9.37326049560100        2.96847189714285       -3.20237823004578
C           -6.42847774324738        1.59334195712878       -4.81588980805903
N           -7.01775505976129        1.67157392750474       -6.12117965260718
C           -6.37140857946726        2.07244289836906       -7.30696229674555
C           -5.06602913403400        2.50427655668091       -7.53603743067658
C           -4.69482856560044        2.84251597035921       -8.81333102578310
C           -5.60512361819834        2.76606271988212       -9.87134391586272
C           -6.89871522620900        2.35413455780079       -9.66182122201790
C           -7.28832663976262        2.00652523655395       -8.36840462766758
C           -8.54678804906206        1.55551855734614       -7.83208455960842
N           -9.70524260919203        1.35034387975956       -8.47533969415283
C          -10.68088530210580        0.92845670915240       -7.69750477184012
C          -10.58909949542864        0.68936661801228       -6.32880321027397
C           -9.40567085204686        0.89931779404292       -5.67930569660533
C           -8.35128429114313        1.35631189954244       -6.45350836943973
C           -5.27825603958477        0.81367407229979       -4.59971765269046
N           -4.66576788675403        0.07961309590803       -5.67093437664875
C           -3.32721801330600        0.21384187851099       -6.09119639287737
C           -2.29233070044916        1.00875998720584       -5.59911707411250
C           -1.07750280255205        0.98012560736405       -6.23782663561318
C           -0.87383992886119        0.17546497871358       -7.36290068896482
C           -1.88430460400141       -0.60955423896802       -7.86375035221322
C           -3.12499845031642       -0.59164956524676       -7.22455067766314
C           -4.37336699573678       -1.26087861249556       -7.50267532015478
C           -4.75827862043527       -2.16040063449986       -8.49810605862186
C           -6.05015275916434       -2.62866464712659       -8.50022196973527
C           -6.96503130761557       -2.21957730910565       -7.52573443786292
C           -6.60036967524845       -1.33569887115269       -6.54134093142784
C           -5.29710188743268       -0.84095709028216       -6.53071048680549
C           -4.72529275186715        0.74900194292114       -3.33402152368108
N           -3.58438315642442        0.62356906905200       -0.80107608739939
C           -1.29502077315832       -0.32281447558908        1.89640615861224
C           -0.13737736402396       -1.04549836508191        2.08212716721457
H            1.38267356735925       -2.22205189052545        1.15273218378814
H            0.40837969730531       -2.02028264476693       -1.09579299149609
H           -1.66095730294128       -0.72739865785333       -1.42365689368647
H           -6.97140346187526        3.33069536673279        1.21162125154495
H           -8.06585702718713        4.44886233530300        3.11222659885790
H           -7.10789427754541        4.24970718164174        5.36792171625404
H           -5.06027404920650        2.93561180497356        5.72174168479545
H           -3.97347116211218        1.82071469116839        3.81424315467566
H           -6.86604522098538        2.72064436009562       -1.65809985488511
H           -6.44795465690915        4.30530568182565       -5.85093159073719
H           -7.22988004692419        6.09333985250682       -7.35912078198190
H           -9.53989235066591        6.92044306733973       -7.21918182137621
H          -11.10730165953174        5.98489651107206       -5.56001495326031
H          -12.32663240535438        4.60604214051177       -3.62168812572166
H          -12.95060948198900        3.05625730083112       -1.80652855136343
H          -11.31067246953629        1.46420651433163       -0.90463246841519
H           -9.01417257730088        1.38969545871114       -1.79830893425341
H           -4.37102609365966        2.55180540430044       -6.71766418931201
H           -3.68614154462047        3.16970141224840       -9.00445040279993
H           -5.28710154109521        3.03668545373233      -10.86466924303756
H           -7.60857625382446        2.29546051759951      -10.46747411678373
H          -11.62925974265812        0.75759606460032       -8.18483705454172
H          -11.45073139060962        0.34284120381853       -5.78228527995007
H           -9.28649314224716        0.73900016400575       -4.62320525772933
H           -2.45893937985023        1.63077596222005       -4.73806576983967
H           -0.26843999997667        1.58887748926965       -5.86881281331797
H            0.08952509136525        0.17430893740286       -7.84563283545060
H           -1.73770906537344       -1.22602948009660       -8.73291734661211
H           -4.04801207629736       -2.47079263753551       -9.24390395109181
H           -6.36395998104026       -3.32161429958750       -9.26338193748647
H           -7.97213071662966       -2.60216028263127       -7.55047796584391
H           -7.29892609542120       -1.00702302391828       -5.79352082594420
H           -3.84720805151709        0.15253327713330       -3.17417112296411
H           -1.77980043399268        0.15557071360470        2.72913865273896
H            0.28969685311207       -1.13429954743445        3.06757421841285
