97
 energy: -22.062220120527 gnorm: 0.000521816830 xtb: 6.5.0 (97a52f5)
C            0.75002636707931       -1.60518775911351        0.64961309850910
C            0.16572888807436       -1.44065654207884       -0.59085532783619
C           -1.03927541360594       -0.78369851199183       -0.70360177405914
C           -1.68159491050578       -0.27842300126571        0.42332266502763
C           -2.96614325971773        0.43044941334350        0.30078153759958
N           -3.50655959524478        0.91189567648208        1.40972701752185
C           -4.65385984960815        1.55006716350202        1.23610222229236
C           -5.31355371238276        2.09910888772370        2.43220355994256
C           -6.52572882574950        2.77539184941944        2.32712643133881
C           -7.14544570370641        3.28586194031452        3.44592713260735
C           -6.56556822827679        3.12917082475957        4.68951271611940
C           -5.36344399117262        2.46021139312523        4.81087893613659
C           -4.74268583586660        1.94932348864830        3.69276931300516
N           -5.25791533347449        1.73391070478573        0.07317481582147
C           -4.62966816984600        1.19994918782980       -0.96194347434030
C           -5.25721695407079        1.35476071851749       -2.28032053806928
C           -6.39056983895386        2.13927649346547       -2.43692710690145
C           -6.99044361449101        2.30306333327836       -3.67194140506307
N           -8.14875486940011        3.14372891580120       -3.78152525469294
C           -8.34173175624640        4.20660896449969       -4.68354948392274
C           -7.49157959893932        4.76809352791590       -5.63476556110035
C           -7.95758668376766        5.79670810014975       -6.41472305433119
C           -9.25799869399538        6.28564216734027       -6.25931112705433
C          -10.10446023521421        5.75408443807390       -5.31724753989606
C           -9.64320683970344        4.70794937222368       -4.51778739765408
C          -10.27343338177239        3.95203841310676       -3.46558234834395
N          -11.51488208496095        4.07478635184564       -2.97373493948886
C          -11.79821651260865        3.21378221222328       -2.01828686127987
C          -10.94087174900186        2.23660872427898       -1.51784633796460
C           -9.67657390991143        2.11545171239902       -2.02208034905677
C           -9.32948401639622        3.00628956906550       -3.02588103783006
C           -6.45680058383168        1.64517563760766       -4.79454562176651
N           -7.06789767030449        1.79544489431627       -6.08299402703567
C           -6.42684619064855        2.23033127375339       -7.26180464451910
C           -5.11373328460851        2.63993111512495       -7.48739733892566
C           -4.74980040471521        3.02993505315476       -8.75176204708147
C           -5.67459032017923        3.02560510323219       -9.79959704189518
C           -6.97531180503279        2.63358385405815       -9.59334261956417
C           -7.35890590526818        2.23398214443289       -8.31262143789076
C           -8.61777518004832        1.78447001076576       -7.76979521764904
C           -9.87205487116118        1.58240974222543       -8.34677420147375
C          -10.89503482431991        1.11992176890666       -7.55455381581579
C          -10.68960270528370        0.85119150465414       -6.19852358457155
C           -9.46091285941537        1.04423713291799       -5.61865983803635
C           -8.41383081166230        1.52232746342593       -6.40485208471097
C           -5.31508961973877        0.83882817596233       -4.64004055462375
N           -4.74881838857777        0.12887939076754       -5.75166307556211
C           -3.41073202520673        0.21187115113945       -6.17969109611001
C           -2.33362012705323        0.94202673349478       -5.67861770074879
C           -1.12430070398004        0.85973672322563       -6.32322626613894
C           -0.96728510990453        0.06449475598839       -7.46259291298403
C           -2.01967321609098       -0.65610350412788       -7.97227656808749
C           -3.25471342941325       -0.58192338071832       -7.32778189687399
C           -4.52850857079028       -1.19021060533205       -7.61656426897651
N           -4.85319521042682       -2.01832603384234       -8.62026915885326
C           -6.11261595950157       -2.40340091306546       -8.60954777213916
C           -7.07204225153840       -2.03284213613853       -7.67052330259170
C           -6.73477181247766       -1.19098474285522       -6.64892137070465
C           -5.42290353861343       -0.74560998883041       -6.62593068703549
C           -4.73004652021392        0.71633258727995       -3.39333253574139
N           -3.48603211165644        0.53603317782573       -0.91147413287268
C           -1.07967867223084       -0.45296276988730        1.66613712947556
C            0.12520930967350       -1.11051440612735        1.77756475437701
H            1.69331708461909       -2.11898020759313        0.73720933731973
H            0.65315598771526       -1.82601077631635       -1.47137449565594
H           -1.49997673651280       -0.64962785400557       -1.66649698599892
H           -6.97191415422528        2.89121569542810        1.35504381273863
H           -8.08359872186852        3.80759318288473        3.35095731263136
H           -7.05098551328051        3.52868608270036        5.56485353484800
H           -4.91132448420873        2.33687770988525        5.78132498665660
H           -3.80703959085182        1.42540696412471        3.77881036851510
H           -6.80380709113220        2.63858511716231       -1.58119446023779
H           -6.49705502589418        4.37853630249298       -5.75347988897782
H           -7.31338356715378        6.23156367784013       -7.16101977675588
H           -9.59951339443314        7.09164049618895       -6.88754790551647
H          -11.10602417335607        6.12374206709689       -5.18740258561368
H          -12.79112519976038        3.28712178692778       -1.60005805771648
H          -11.27474747942354        1.57619568450907       -0.73441321826469
H           -8.98146403941210        1.37293822878467       -1.67341454187351
H           -4.40801320549967        2.63204506916460       -6.67678247097824
H           -3.73604285860550        3.34229406927680       -8.94053891141140
H           -5.36219422164479        3.33603229128991      -10.78300509597595
H           -7.69374989323701        2.63102955679368      -10.39370406270997
H          -10.02092352325328        1.78621773372616       -9.39226005297400
H          -11.86997834365087        0.95953404966779       -7.98438651806583
H          -11.50887926197137        0.48920064082474       -5.59965832406582
H           -9.29512335180198        0.84890255208865       -4.57483409987909
H           -2.46379532983657        1.55700793428058       -4.80642296531984
H           -0.28250763260912        1.41737925093027       -5.94688846783751
H           -0.00650488440935        0.01848810302336       -7.94818268615880
H           -1.91135386408798       -1.26728547180293       -8.85058443349459
H           -6.40773761322270       -3.06768870712754       -9.40817026883536
H           -8.07964551652862       -2.40622169288355       -7.75178586265426
H           -7.44063690758346       -0.86707825341105       -5.90600106914666
H           -3.85647271454925        0.10273502546884       -3.28026617255958
H           -1.57242750296501       -0.06390445514758        2.53976927629309
H            0.58092641227459       -1.23880049733867        2.74567115993682
