77
 energy: -17.456144975555 gnorm: 0.000543240935 xtb: 6.5.0 (97a52f5)
C            0.10915882958845       -2.15015675763834        0.92909350111948
C           -0.45502058171992       -2.05160972871366       -0.32742778105459
C           -1.56022238187376       -1.25455839116970       -0.52621904380766
C           -2.12076330396246       -0.54087135605428        0.52900914862050
C           -3.29670771487317        0.31857218557943        0.31440186203857
N           -3.77202402930480        0.97515413316987        1.36116446394496
C           -4.82213887071511        1.73974931372068        1.10619711493825
C           -5.40887390606855        2.48668568010773        2.23109492837138
C           -6.48895254598133        3.34096515125107        2.02938424848874
C           -7.04382477308509        4.03352694187001        3.08231317298772
C           -6.52996398884563        3.88428655902970        4.35527385071454
C           -5.45843542300228        3.04062399428673        4.57206648575282
C           -4.90233199027926        2.34788691708974        3.51978253833246
N           -5.39192639865804        1.88465242037806       -0.07903789711363
C           -4.83811695139947        1.17106068468531       -1.04516118863241
C           -5.44017714475040        1.27278993651372       -2.38265169538549
C           -6.44847680206777        2.19227792693416       -2.63273756846448
C           -7.02437380225371        2.29998259160706       -3.88888747760771
N           -8.04487102221326        3.27787631486265       -4.13664324609406
C           -8.00338267134364        4.63158746374789       -3.75211378976000
C           -7.02454873036522        5.36743025743079       -3.08445499140108
C           -7.24328648252487        6.70329701911405       -2.85488495998255
C           -8.41954660533256        7.32534241955043       -3.28323068874987
C           -9.38953944697502        6.61793537531871       -3.95046496542893
C           -9.18065767537272        5.25971801507670       -4.19059295866856
C           -9.98037899477048        4.26969418525639       -4.86705360364635
N          -11.18463926926712        4.41619592621868       -5.43785627829344
C          -11.66418113045169        3.30899484478988       -5.96557705453242
C          -11.03640004122728        2.06597689261692       -5.96521265480699
C           -9.80759795299761        1.92234006508177       -5.38427303616847
C           -9.25758031064057        3.06349130161767       -4.82090813468615
C           -6.58789586574786        1.45811885365559       -4.90090361491585
C           -5.58592934945930        0.52584151000889       -4.67514378749929
N           -5.15562531246846       -0.35528548248958       -5.72280679276675
C           -4.89136354976021        0.00366928900477       -7.05828263667881
C           -4.90768251426963        1.24304372517870       -7.69776908138835
C           -4.59198651608239        1.30210226371076       -9.03277760270344
C           -4.25484413015603        0.14809867857590       -9.74607646736103
C           -4.22431463484779       -1.07897864266102       -9.12988765114942
C           -4.54115842710125       -1.15347422248964       -7.77349734418280
C           -4.58571043469667       -2.26581942208922       -6.85844028799041
N           -4.33576806222926       -3.55986006253197       -7.10416380259809
C           -4.48148115533467       -4.34108754060173       -6.05401303943671
C           -4.86293657893505       -3.93169200242614       -4.77891928837831
C           -5.11599799916166       -2.61125079066227       -4.53353479925398
C           -4.96526354560656       -1.74679564514346       -5.60714867263977
C           -5.01531148415895        0.44772674706144       -3.41406878128979
N           -3.79448996372693        0.36992276735535       -0.91060071426920
C           -1.54052513375161       -0.65137528258090        1.78909459726954
C           -0.43559038060803       -1.44913966963540        1.98677355883182
H            0.97447310982624       -2.77358438464222        1.08407476644369
H           -0.02958957036644       -2.59798409352167       -1.15313142701387
H           -2.00469467633347       -1.17065851762090       -1.50237296155981
H           -6.88422053721757        3.45007512209927        1.03475501315560
H           -7.87998348429649        4.69180254495102        2.91272654139709
H           -6.96506912208788        4.42565245211484        5.17929392996058
H           -5.05771270810651        2.92342698263040        5.56553784464734
H           -4.06940813501939        1.68621136157490        3.68049331825050
H           -6.79229893934158        2.82401306022320       -1.83589163254461
H           -6.11551095020169        4.88813017878293       -2.76924927147255
H           -6.49572730594250        7.28288399152684       -2.33868274388321
H           -8.56446075036103        8.37546195421355       -3.09016007448100
H          -10.29493313151258        7.08791427083962       -4.29107305709573
H          -12.63420100722059        3.39398559620227       -6.43265388398972
H          -11.52018976001296        1.21775406152060       -6.42114618322447
H           -9.29179140931913        0.97969620606457       -5.34884666156241
H           -7.03360627196117        1.52895636208207       -5.87450455931455
H           -5.15316385061335        2.12994244374033       -7.14210554914185
H           -4.60234281984507        2.25304312717569       -9.53951435574021
H           -4.01231474900296        0.22415746745039      -10.79316634872926
H           -3.96164770369017       -1.97301290520386       -9.66702566610130
H           -4.28551933925987       -5.39025251105372       -6.21883120210298
H           -4.95984072161573       -4.65592271096246       -3.98676734212141
H           -5.42354774000547       -2.25242112766492       -3.56796287177666
H           -4.22808600401082       -0.25853017186329       -3.23047837550736
H           -1.96983107005168       -0.10030966755529        2.60721401168131
H            0.00443579834508       -1.52598444760560        2.96748264917429
