92
 energy: -19.980714034874 gnorm: 0.000519503902 xtb: 6.5.0 (97a52f5)
C            1.55723584077972       -2.04435583456996       -0.58750669224976
C            1.06715956616273       -1.20156282149890       -1.56568975220055
C           -0.21972536198130       -0.71865015803575       -1.47820629074572
C           -1.04110683313006       -1.07055097733648       -0.41071070147860
C           -2.41612227913153       -0.54952623772440       -0.31655231785355
N           -3.15393458078653       -0.95467581134516        0.70551390828490
C           -4.37536493248181       -0.44447646585118        0.74272697250882
C           -5.25176251914691       -0.86568363523134        1.84991957287026
C           -6.54927881951909       -0.37283169602693        1.95718385457996
C           -7.37027290862642       -0.77034966961672        2.98919349150628
C           -6.90974186374981       -1.66720126037958        3.93310578147308
C           -5.62490544702193       -2.16541308489742        3.84151970546548
C           -4.80313494237867       -1.76859147618359        2.80983049406369
N           -4.87476191025611        0.41130346209863       -0.13502390269033
C           -4.04889970390396        0.74051440068932       -1.11682232413148
C           -4.54246448182276        1.68599660020407       -2.12932100331621
C           -5.76127306387968        2.33985443612543       -1.96392248508835
C           -6.21727454760546        3.22853989605216       -2.90733703908687
C           -5.47615662155407        3.49275882192270       -4.06132172473257
C           -5.96695639173455        4.44481284879456       -5.07917467769191
C           -6.59359383431366        5.63555985236759       -4.70785171428117
C           -7.05188233368832        6.51654428651770       -5.65559160298748
C           -6.91363656480751        6.24943074745980       -7.01787150453736
N           -7.48457121035920        7.12511463706391       -7.99425029398678
C           -7.79042126723209        6.62575042907649       -9.31758089215196
C           -6.78362658531450        6.30310021958185      -10.22785044232648
C           -7.09905037380158        5.79236314900991      -11.46753627951317
C           -8.42012180098312        5.60148852551555      -11.82662393553674
C           -9.42858663288746        5.93557730991370      -10.94252072183304
C           -9.11606196230278        6.44618666560032       -9.70546256271802
Si         -10.38021547333273        7.10219955121430       -8.52538059342933
C          -11.87685230142048        7.67529345704165       -9.46975096593450
C          -11.85406454058125        8.89296409977821      -10.11519907171974
C          -12.94233745446139        9.30327661093250      -10.86028272665968
C          -14.05314939208679        8.48967349607335      -10.96183282955967
C          -14.07392897439293        7.26651286062519      -10.32189123084289
C          -12.98346516320500        6.86048029086371       -9.57790473487613
C          -10.78775847237277        5.83560407877492       -7.22688685380729
C          -11.91899992010504        5.97145167035706       -6.45129479578682
C          -12.17462739835154        5.07108582281566       -5.43525600755669
C          -11.29202241797841        4.03737530140306       -5.19176324876241
C          -10.15507335624385        3.90451015747235       -5.96333500107549
C           -9.90730070102350        4.80471883457013       -6.98016949556285
C           -9.50467480464962        8.50656689242711       -7.69992375149817
C          -10.13414157213215        9.63506826405141       -7.23207014749473
C           -9.39972009382748       10.63160107557071       -6.61731553514219
C           -8.03226598085857       10.49048243226663       -6.47421053864313
C           -7.39990194710239        9.35841338907290       -6.93798309734005
C           -8.12875084635480        8.34292157619914       -7.55690389471166
C           -6.29474552926883        5.05528141345405       -7.38716132061776
C           -5.82587870673458        4.17669746220801       -6.44200829756517
C           -4.25762151660409        2.83101335220035       -4.22677307387951
C           -3.79936727936977        1.95024639571056       -3.27745750766601
N           -2.81213059907384        0.28886192351686       -1.26082915134076
C           -0.53132051186767       -1.91973591197437        0.56746083811284
C            0.75588638032429       -2.40194334079226        0.47905175502934
H            2.56434385841430       -2.42208485743605       -0.65588134005670
H            1.69223714120948       -0.92123334140718       -2.39773887457752
H           -0.60796429558292       -0.06061368142448       -2.23559252389045
H           -6.90132963571572        0.32522112754497        1.21818445500526
H           -8.37279679493424       -0.38107754604524        3.06006992646494
H           -7.55226911964315       -1.97780795885306        4.74075387176680
H           -5.26520899663009       -2.86620875020795        4.57713007993433
H           -3.80152360254169       -2.15326780845709        2.73206247286970
H           -6.34089998725815        2.13725861520767       -1.08055458318455
H           -7.16547757537823        3.71906890230653       -2.77104149027099
H           -6.70726022205232        5.86292515032994       -3.66207949436756
H           -7.55249058636809        7.41702926534290       -5.34882971848409
H           -5.75750838150699        6.47069059221497       -9.95054546909870
H           -6.31283388270600        5.54311113044622      -12.16128065571568
H           -8.66423815542162        5.20286422963957      -12.79758618591925
H          -10.46272268605801        5.81348544992204      -11.21620470999761
H          -10.97848717832959        9.51503744911096      -10.03596180770151
H          -12.92275790010433       10.25648173613748      -11.36276436387944
H          -14.90329134445645        8.80818361851049      -11.54284152110445
H          -14.93892580586983        6.62874999136879      -10.40284479552530
H          -12.98526761993988        5.90481508188016       -9.08168065190951
H          -12.59328977641083        6.78960782690178       -6.64082755420773
H          -13.06066009269584        5.17830162294075       -4.83114146229238
H          -11.48822025735670        3.33678029036237       -4.39653061094936
H           -9.45737611114833        3.10692896769358       -5.76742456536008
H           -9.01087169799101        4.72952228904773       -7.57017409353022
H          -11.20023372435943        9.73116787260322       -7.34769597965403
H           -9.89311179461870       11.51664736132894       -6.25057656006089
H           -7.45937197009393       11.26757707152589       -5.99518346282672
H           -6.33635531099816        9.23925167633465       -6.82614090567408
H           -6.20500036454025        4.81043668274125       -8.42923479495005
H           -5.36471637800833        3.25362935082603       -6.74803171043962
H           -3.66744973151702        3.03230407384662       -5.10396608802272
H           -2.85621210064544        1.44969541763723       -3.40879698918028
H           -1.15945791485953       -2.19096029343497        1.39758709135243
H            1.13857293673691       -3.05826692175448        1.24350142421528
