90
 energy: -19.915242316680 gnorm: 0.000256884279 xtb: 6.5.0 (97a52f5)
C            1.64577169612765       -0.09128708590255       -0.47678463186989
C            0.99952926154758        0.50971519019545       -1.53918732703623
C           -0.33834475310166        0.82323302920441       -1.44472363338110
C           -1.05428254067202        0.54201294575166       -0.28453236906350
C           -2.48621670838766        0.87359549082221       -0.18367505717196
N           -3.09328119073181        0.60204865069802        0.96137504930158
C           -4.37817703089582        0.91929925943327        0.99464064500789
C           -5.11828120866009        0.62604808281152        2.23424491061563
C           -6.48201804659504        0.88994571137513        2.32615733907206
C           -7.17768259831082        0.60636675977658        3.48049641084294
C           -6.52333233011986        0.05371583759863        4.56388866560240
C           -5.17046619773759       -0.21409642402097        4.48912056714585
C           -4.47380101426478        0.06891740747955        3.33509087575992
N           -5.05606270372556        1.46931629199069        0.00012177611845
C           -4.34910006547072        1.68631484825689       -1.09880424891434
C           -5.05895660052900        2.25761203935352       -2.25278998062806
C           -6.38805830387766        2.65911379366424       -2.14117941884399
C           -7.06985516255437        3.14979521051286       -3.22794110250928
C           -6.45082970106236        3.25234687581866       -4.47548442699598
C           -7.20676988998873        3.70199238994141       -5.66168143022942
C           -8.16811050883512        4.71075703522085       -5.57758403263705
C           -8.89761936460140        5.08030888946784       -6.68020525251570
C           -8.69586487346757        4.45792257101366       -7.91238500106703
C           -7.75388258646104        3.42283065408956       -8.00532680329939
C           -7.01615684843641        3.07745386475627       -6.89434735982105
C           -7.58971968308390        2.69346630708284       -9.34005640291307
C           -6.55502817583101        3.40379529866626      -10.21682559459749
C           -6.56348952825638        4.68285208766388      -10.73031360583864
C           -5.50289026935556        5.10183685782939      -11.50972817251662
C           -4.44267325249748        4.24860405884377      -11.77273838213841
C           -4.42532405129632        2.96571697286977      -11.26157427689735
C           -5.48966142119511        2.54157049136382      -10.47842222938876
C           -5.73674758620431        1.25340354896657       -9.81440494387270
C           -4.96204387711427        0.10350659536443       -9.76465247638938
C           -5.42413206550861       -0.98049054722642       -9.04557307322947
C           -6.64038361856747       -0.92432369106661       -8.38368333144795
C           -7.41660040161129        0.21896276228873       -8.42984140863997
C           -6.96186874725873        1.30626362261689       -9.14694511842228
C           -8.93941321049506        2.61722160946275      -10.05660817692034
C           -9.28790024706692        1.54442948502296      -10.85563683412845
C          -10.52892754745612        1.48434821911528      -11.45731698344817
C          -11.44249545858198        2.49962908216378      -11.25712141321831
C          -11.10855934058663        3.58130790932729      -10.47553241415556
C           -9.84815083163915        3.67126709551896       -9.88922424485644
N           -9.46508757270083        4.79499940853923       -9.07652356276753
C           -9.47936316241710        6.13165513498139       -9.60510360532481
C           -8.87133328834445        7.18335615039257       -8.92120417940981
C           -8.82089938531378        8.45007382469832       -9.45831293323300
C           -9.36756923180097        8.69845552854434      -10.70076751551757
C           -9.95468041025662        7.66823723356625      -11.40637817351797
C          -10.00406159437436        6.40211638247764      -10.86818804439151
C           -5.11367111200543        2.86249441355984       -4.58095691983902
C           -4.43162887820400        2.37933087758982       -3.49052145375157
N           -3.06266992597956        1.40883984579198       -1.24826848680775
C           -0.38768090825777       -0.06258909826522        0.77747453565988
C            0.94986617017128       -0.37675439479896        0.68150000716834
H            2.69234898972063       -0.33757467118135       -0.55152992186284
H            1.54238649391648        0.73347270300222       -2.44296762231239
H           -0.84881774086284        1.29116772042827       -2.26805775393125
H           -6.98534020389800        1.31775927544008        1.47701014235528
H           -8.23359965084231        0.81462445082279        3.53762418215305
H           -7.06828644689940       -0.16928490640224        5.46659925690131
H           -4.65971055874867       -0.64656436837274        5.33391527675046
H           -3.42053866262737       -0.13970369913514        3.26840678822043
H           -6.87786540314730        2.56523251506331       -1.18793162295015
H           -8.10447836600478        3.42987414995567       -3.13166898049167
H           -8.33174792748789        5.20179147991873       -4.63405127057787
H           -9.66207245872880        5.83300222163003       -6.59682951496536
H           -6.30131623296235        2.27897069975142       -6.96867623483217
H           -7.39308005456955        5.33015282198522      -10.51600996562217
H           -5.50157458132078        6.09997819095742      -11.91603955119273
H           -3.62289378755056        4.58951262404891      -12.38356367007201
H           -3.60655584813266        2.29730269295008      -11.46167397987315
H           -4.01752741916023        0.06984593602744      -10.27840583450709
H           -4.83138422491826       -1.87920127693665       -8.99696205684447
H           -6.98413044300251       -1.77890837174894       -7.82435961552308
H           -8.35925986250436        0.27576705323118       -7.91410750078521
H           -8.58019062880103        0.74694867361938      -11.00005988283425
H          -10.78865079701057        0.63874669846662      -12.07285192292514
H          -12.41858921795176        2.44331012349460      -11.71058966638392
H          -11.82726584272148        4.36037905372147      -10.28964052422250
H           -8.40460932007121        6.99585848751315       -7.97227038967095
H           -8.34670022365794        9.24836321625738       -8.91092427678352
H           -9.32716741432790        9.68952360238798      -11.12231502275622
H          -10.36851813915105        7.85397829648313      -12.38416784100999
H          -10.42606049119209        5.60204951076541      -11.44706800112431
H           -4.61678317257539        2.94655233376453       -5.53200067078606
H           -3.40422358614051        2.07366403321448       -3.58184248850442
H           -0.93667714294543       -0.28215163199349        1.67623521907014
H            1.45343825013226       -0.84642203141445        1.51061016907269
