97
 energy: -21.851748288273 gnorm: 0.000337940168 xtb: 6.5.0 (97a52f5)
C            2.10207139904756        2.36941298297367        1.11075629926375
C            1.52801313427657        2.12305325840487       -0.12067551754408
C            0.15776983124269        2.06019678116086       -0.24207122288442
C           -0.66345884339518        2.24202947875092        0.86683742410594
C           -2.12828083099233        2.16415790371583        0.73702701462461
N           -2.84916580051796        2.33654736508315        1.83314261355098
C           -4.15768558879221        2.24266009767390        1.65504756829683
C           -5.01245598666507        2.41499110506534        2.84191282198748
C           -6.39882452631926        2.35321173341996        2.73722712795187
C           -7.19517006899578        2.50821597039182        3.85009122446381
C           -6.62083068986961        2.72726280095029        5.08666715752012
C           -5.24675972969491        2.79109657024808        5.20737004918272
C           -4.44947916878423        2.63672417848871        4.09527860882560
N           -4.75860016690165        1.99865263174984        0.50124536333281
C           -3.93774585870283        1.84534066018842       -0.52594814191928
C           -4.53251202581036        1.55253688363359       -1.83805120380058
C           -5.91017228444934        1.40920059836271       -1.99083548268589
C           -6.45296214492868        1.09602316243906       -3.21382267552834
C           -5.63545076900117        0.91531388808906       -4.32622506220615
N           -6.17871153357029        0.50603352142059       -5.59166983361855
C           -5.78146762114850        0.99283854904868       -6.85552132124534
C           -4.98775045235043        2.08350417941463       -7.21002399898472
C           -4.72617681501386        2.30986013395565       -8.53667561470507
C           -5.22927153690547        1.46758781553785       -9.55294136391532
C           -4.88629557290368        1.70863425377099      -10.97060228403500
C           -3.62476782791696        2.24294247243749      -11.32339060620643
C           -3.26433924987417        2.46067816586986      -12.62452992084988
C           -4.16324372175606        2.13981015780841      -13.64912709799732
O           -4.03895983123998        2.24951828073192      -15.02454277086033
C           -5.22240532469730        1.77317586239743      -15.56917931055909
C           -5.62269417832297        1.64797668214626      -16.90501153389357
C           -6.85925071425489        1.12959661227304      -17.18773367000618
C           -7.72669180059997        0.72537658490567      -16.16687586287946
C           -7.36273472010163        0.83816191705592      -14.84970561155182
C           -6.10512684743442        1.36530447770075      -14.54599849145484
C           -5.42367858860388        1.60336262257750      -13.30931329448908
C           -5.78271846459682        1.39272461739601      -11.97899263050610
C           -6.03605383711984        0.39441699794456       -9.19654508555012
C           -6.31757924029084        0.16301572129633       -7.85399196834869
C           -7.08186480140751       -0.86648808822530       -7.18958843574250
C           -7.78054880457857       -1.96587475077539       -7.67702148300634
C           -8.39045916812012       -2.84026064737623       -6.78683785468660
C           -9.11677614743654       -4.02671565965318       -7.28640860009990
C           -9.09592469031438       -5.24217520333811       -6.56311200477851
C           -9.73617432179771       -6.36525764758291       -7.00966837044954
C          -10.43240278339568       -6.32233406900908       -8.22407903252073
O          -11.13996169083776       -7.30726380664494       -8.89404838628178
C          -11.61731912897550       -6.72910316790318      -10.06126938512766
C          -12.37837298713696       -7.27538336543558      -11.10181909951310
C          -12.72059855242198       -6.48487821617344      -12.16759598891842
C          -12.32437692746094       -5.14446264869177      -12.23327949242502
C          -11.57938161323364       -4.58207441914972      -11.22897112662044
C          -11.22299888012941       -5.37591491424377      -10.13609832625753
C          -10.46053314281203       -5.11411952781773       -8.95300777182289
C           -9.80925121644946       -3.97432163575995       -8.48527603887723
C           -8.28469504057011       -2.58852172862301       -5.40131405691421
C           -7.59141162178182       -1.51238170415744       -4.91048119984037
C           -6.98465084291744       -0.63310387586511       -5.80743367088635
C           -4.26063314893698        1.07425622061306       -4.17845038052173
C           -3.71952079371526        1.38674019020208       -2.95664317224315
N           -2.61700801332329        1.91769338617980       -0.46705333450482
C           -0.06932352627515        2.48984060625734        2.10060730829455
C            1.30121024334458        2.55279472261026        2.22071103309875
H            3.17450259813212        2.41793247796419        1.20546738669175
H            2.15241851050346        1.97899931739318       -0.98715896699439
H           -0.29728284851683        1.86699168940613       -1.19754150753194
H           -6.83834508602391        2.18037579095717        1.77068131555126
H           -8.26751851556617        2.45725959583169        3.75593623276283
H           -7.24441097562879        2.84693626025227        5.95741425527600
H           -4.79789523969987        2.96080406677026        6.17231755283680
H           -3.37811099071592        2.68356555056678        4.18086359222531
H           -6.54243760688731        1.53921977801555       -1.13031366388700
H           -7.51749739079213        0.98970484773122       -3.32726388003727
H           -4.60160529347202        2.73306923505157       -6.44507779046454
H           -4.12924772862392        3.15938848827757       -8.81840175374692
H           -2.92206376666748        2.46391720938561      -10.53925833887197
H           -2.30116844741600        2.86434873990446      -12.87987249096789
H           -4.95149358208961        1.95802743490014      -17.68553833141394
H           -7.17036068680012        1.02925047366726      -18.21460402530802
H           -8.69182751926221        0.31915809880846      -16.42074792003151
H           -8.02054188581475        0.52845947191422      -14.05703667084161
H           -6.75341220525809        0.99666711572903      -11.74664303701511
H           -6.41946370877825       -0.27520325474694       -9.94322467849284
H           -7.81749640750535       -2.14696375530571       -8.73481346325347
H           -8.53927853659583       -5.28362239625004       -5.64331237529944
H           -9.70932272374775       -7.28488444152105       -6.45344907836745
H          -12.67794204198939       -8.30648913013074      -11.04785437984416
H          -13.30422074408301       -6.90216802875070      -12.97165870487611
H          -12.60744050850317       -4.54851356107283      -13.08514774581458
H          -11.26704908688728       -3.55360560140714      -11.27000986786190
H           -9.85643903917029       -3.06337197993722       -9.05204366507018
H           -8.77183208570491       -3.25971511037070       -4.71599109348093
H           -7.50233105744639       -1.34251772971774       -3.85286512277061
H           -3.62476804252714        0.91885042770383       -5.03217547624335
H           -2.65521586104226        1.49431989387696       -2.84339270613925
H           -0.70021100813271        2.62939567381670        2.96070301797159
H            1.74906511151943        2.74442562574825        3.18200055690164
