99
 energy: -22.342553327510 gnorm: 0.000731199831 xtb: 6.5.0 (97a52f5)
C            2.47693685436121        0.28168489495862        0.04377800623183
C            1.70010975513166        0.26197088185325       -1.09795138351531
C            0.33993838331010        0.45999401501794       -1.00999233856109
C           -0.26810114263971        0.68219227950634        0.22243518329876
C           -1.72164512792833        0.89959599753939        0.31580887009425
N           -2.23051890382038        1.10320520080184        1.52099925138647
C           -3.54044360320373        1.29486236272637        1.54301738210029
C           -4.16915646852396        1.51764321160181        2.85599859655140
C           -5.54581047178975        1.69394748739248        2.96503851740039
C           -6.13415404388160        1.89548598216836        4.19378161415238
C           -5.35799923794693        1.92476447939448        5.33585162457582
C           -3.99066617902934        1.75216158507944        5.24496394023117
C           -3.40121570743372        1.55016881614842        4.01680032583156
N           -4.33123794806046        1.30017968393143        0.48133484279490
C           -3.71330113509337        1.08266780987850       -0.66969254012486
C           -4.53723129724791        1.06350184441940       -1.88738623580483
C           -5.89745246176139        1.36114562236612       -1.83412215273617
C           -6.66838947810732        1.33298969764311       -2.97045914615465
C           -6.10795042832248        1.00010885140954       -4.20090353459751
N           -6.91754298642651        0.94595085993659       -5.38501653214737
C           -6.58465354658808        1.47873503205914       -6.65076886725880
C           -5.47703257331765        2.21170470736843       -7.07867950886224
C           -5.41307851570903        2.61095381818195       -8.38908105261883
C           -6.43451536179599        2.30039401839195       -9.30493292176227
N           -6.32890890337021        2.72061591323881      -10.67677370244736
C           -5.23078944719570        2.49627468843683      -11.53137638500537
C           -4.01641734403802        1.84644705220253      -11.30952663782449
C           -3.11507943536846        1.75978867178242      -12.34148260717567
C           -3.40058194278055        2.30656798612676      -13.59620880627780
C           -4.59449308471233        2.94331095779158      -13.83467293985478
C           -5.52158206386571        3.03865559678158      -12.79524484367921
C           -6.84272484327380        3.61481540832809      -12.72037120834732
C           -7.63358711199640        4.27886299394788      -13.65987054485374
C           -8.87584939906758        4.72421725319825      -13.27796408005736
C           -9.34384100885872        4.52212932349758      -11.97602805857188
C           -8.57793249725497        3.87009980670561      -11.04141793017819
C           -7.31614848316288        3.40553061539478      -11.41336112158820
C           -7.54150926557588        1.58679976478824       -8.88239899533909
C           -7.61945207737057        1.18087106040632       -7.55357405312989
C           -8.62749079595702        0.44747178135697       -6.82686959861559
C           -9.84658318914241       -0.09668375048431       -7.21994194694659
C          -10.61405317476310       -0.77246240732720       -6.28851607238437
N          -11.88488367167167       -1.32914126541137       -6.66844170846661
C          -12.31731432382212       -2.65046833959941       -6.43766996800188
C          -11.67224323097694       -3.73280548865369       -5.83891115023022
C          -12.33567082970777       -4.93177080131292       -5.75208984742347
C          -13.63278321154892       -5.07621833710250       -6.25391122473205
C          -14.28054034283291       -4.02282920281939       -6.85266142464425
C          -13.61867952532698       -2.79729843106705       -6.94905613796689
C          -14.00319810580277       -1.52587676565202       -7.51387622617203
C          -15.17066296822950       -1.09022698190513       -8.14356712976924
C          -15.24159605998137        0.21361599356729       -8.57092939121379
C          -14.17112451428308        1.09266025599930       -8.38005941413729
C          -13.01624327426748        0.67865234923941       -7.76358570290649
C          -12.92406116693639       -0.64396609529015       -7.32950356313221
C          -10.15006032943954       -0.90768210032957       -4.96759924367637
C           -8.94876008417253       -0.37927105675697       -4.57044000701092
C           -8.17658723383152        0.31505463898122       -5.50258751118451
C           -4.74822145777777        0.70554906182769       -4.25710266583237
C           -3.97689490768276        0.73907101359393       -3.12127772947908
N           -2.41317706644177        0.87468477653497       -0.81247164187184
C            0.52902997908730        0.69871090440123        1.36350957221149
C            1.88908242080342        0.50026120818756        1.27426039562353
H            3.54142683470734        0.12733052426706       -0.02562126194197
H            2.15841602651250        0.09192212523261       -2.05845080911267
H           -0.27198593680969        0.44706695931577       -1.89463675613737
H           -6.14390435418941        1.66846494490630        2.07119808055464
H           -7.20134783381572        2.02893349686140        4.26423405297041
H           -5.81903045829276        2.08142651402533        6.29724689968072
H           -3.38461253657626        1.77439704908150        6.13587633078856
H           -2.33701087430686        1.41327095533811        3.93820468809691
H           -6.33467924034381        1.61608766850156       -0.88484269007705
H           -7.71377560814150        1.58285698223925       -2.92531407121913
H           -4.69989595828649        2.46419421324298       -6.38010045446762
H           -4.57268337557114        3.18510509895688       -8.73734259403387
H           -3.80716284501432        1.41937350298397      -10.34535694645869
H           -2.17297341046451        1.26091664609103      -12.18370444372631
H           -2.67435444840797        2.22406127843179      -14.38779778736326
H           -4.82391320883096        3.36210062227962      -14.79850009717378
H           -7.26561912856072        4.43193765856641      -14.65887978095092
H           -9.49885619297671        5.23850910693548      -13.99105992000224
H          -10.32076007582561        4.88549662843300      -11.70268889734980
H           -8.92864720457834        3.71874245906237      -10.03649234933346
H           -8.32455727825388        1.33968027310554       -9.57408174054001
H          -10.18394365299221       -0.00098083457739       -8.23470671219816
H          -10.67137512085807       -3.61770321254084       -5.46348440085334
H          -11.84939441486925       -5.77596846190132       -5.29146309801752
H          -14.12958539483743       -6.02886516456547       -6.17139146619292
H          -15.27686992506871       -4.12681236378269       -7.24460890951641
H          -15.99123785941190       -1.77151167821402       -8.28311120406829
H          -16.13588036084353        0.56607820940100       -9.05796356122349
H          -14.25558852006367        2.11132250520198       -8.72131795214631
H          -12.19278461355095        1.35170084432696       -7.60614703425190
H          -10.76818148166985       -1.43274387143240       -4.26083441895871
H           -8.59350021290722       -0.49911548524216       -3.56303775793051
H           -4.31412552274026        0.43004088123293       -5.20208501176285
H           -2.92756393419165        0.50660482288506       -3.16782241568434
H            0.06395613838682        0.87067331837734        2.31814995000302
H            2.49497758201223        0.51574859033271        2.16536385224131
