99
 energy: -20.474969763547 gnorm: 0.000844442605 xtb: 6.5.0 (97a52f5)
C            2.25393674534234        1.40254779507778        0.39079406170741
C            1.57530985085112        1.17082644074132       -0.78960451723188
C            0.20244718670725        1.06176963510447       -0.78586705853136
C           -0.51707488574412        1.18288516647385        0.39970102799516
C           -1.98501788625930        1.06808079403561        0.40457516705661
N           -2.60031436998878        1.18874016630973        1.57053192243292
C           -3.91782277184515        1.07149656863158        1.51558305641092
C           -4.66071579150361        1.19503127333418        2.78094182694003
C           -6.04826773869813        1.08533475691910        2.80580868405220
C           -6.74193583320137        1.20314433702736        3.98976726800281
C           -6.06237282145168        1.43215159287024        5.17008553554416
C           -4.68569476056906        1.54335284693788        5.16261930642704
C           -3.99100600534794        1.42627682758961        3.97921269129921
N           -4.62112420250471        0.85073937304528        0.41621012394207
C           -3.90074103395745        0.75153139697527       -0.69071917047336
C           -4.62228840373368        0.50323693850117       -1.94701017814039
C           -6.00416091258022        0.32365628139588       -1.95103582358004
C           -6.67585318980116        0.08217001121614       -3.12356459781711
C           -5.99132513944713        0.01979615908180       -4.33415480598707
N           -6.71302472514302       -0.23442788983847       -5.54902083297589
C           -6.59660135960762        0.46867288181942       -6.76593219333558
C           -5.74756428849736        1.49638824603176       -7.18069131484378
C           -5.95529223073351        2.06747889045353       -8.41007066038548
C           -7.00491261529401        1.64754027191704       -9.24681063325814
N           -7.24884653261562        2.31634201434265      -10.49653415615466
C           -6.32664365818068        2.50037682219522      -11.54504582339961
C           -4.99486975995375        2.10579374806664      -11.67075723664549
C           -4.32298165476139        2.41136126625560      -12.82853182233597
C           -4.95394314017831        3.10241830606126      -13.86759336761231
C           -6.26662168242669        3.49442347232638      -13.76191055572890
C           -6.96403045962680        3.19039773725397      -12.59125784327080
C           -8.32322905912512        3.44241926905451      -12.17382486160450
C           -9.39782897362643        4.08113604982401      -12.79563223509023
C          -10.59281473792720        4.16631924352444      -12.12257844927721
C          -10.73700745117154        3.62872447249468      -10.83992215929253
C           -9.69029579889004        2.99681089534788      -10.21585188753409
C           -8.47178845728656        2.89627901197432      -10.88707973954192
C           -7.84442424630496        0.62680557048367       -8.83955152971016
C           -7.63995831545946        0.03525224978095       -7.59552732089065
C           -8.40429202578142       -0.94263310631053       -6.84820378550621
C           -9.58378168693239       -1.56026927913966       -7.28142060450124
C          -10.42168791124435       -2.26885075976296       -6.50894984945657
C          -10.42139717421251       -2.40631260739746       -5.17402763603691
C          -10.48288332599047       -1.41025391721847       -4.31015361137340
C          -10.42006427089070       -0.11236008697096       -4.60613885726772
C          -10.42944294112666        0.90765446908101       -3.74006809490157
C          -10.20733729966215        2.26112556631651       -4.02837534305056
C          -10.02969141110048        2.90205540890194       -5.24137952028252
C          -10.24829908876758        2.44992982117348       -6.51406847357681
C          -11.03041549505701        1.44963435539660       -7.04081367401692
N          -12.27690065283736        1.10097106475244       -6.82626282686831
C          -13.20157260716308        1.66877189679451       -6.12293542690721
C          -13.21179796513207        2.81790816180096       -5.43557564313204
C          -14.19122346528316        3.32202336210935       -4.71860828347514
C          -15.35960750670635        2.80800925255424       -4.50682904993585
C          -15.53208134137009        4.12965246979470       -8.13530486733637
C          -16.63674378161310        3.73614902073512       -8.67616982279227
C           -7.80047456173373       -1.06607495665321       -5.61938364879033
C           -4.61116369241942        0.19977780273636       -4.33458381421333
C           -3.93903258864945        0.43545732081106       -3.16003579564161
N           -2.58209730449591        0.85367511510100       -0.75703907588385
C            0.18203851783825        1.41518753197964        1.58081004248665
C            1.55489767002315        1.52424770991610        1.57575895826199
H            3.32825361750472        1.48821744006409        0.38721972975004
H            2.12040397317757        1.07556623017184       -1.71444029517546
H           -0.33331528583596        0.88099068914081       -1.70109316693973
H           -6.57058585758185        0.90703396303436        1.88235009996987
H           -7.81619818699745        1.11711583644913        3.99495039214549
H           -6.60577384940389        1.52434719284388        6.09623615549366
H           -4.15480348778841        1.72265878057589        6.08320416390118
H           -2.91877152262078        1.51270851665406        3.96479235916341
H           -6.53672642251653        0.37644091770692       -1.01786011342954
H           -7.74413487342270       -0.04466068490400       -3.12902001446285
H           -4.96826288977202        1.84580999626145       -6.52823680718401
H           -5.32783794580226        2.87484018921836       -8.74443033141242
H           -4.51863708882331        1.56883042347288      -10.87018826156277
H           -3.29337150780909        2.11335594251520      -12.94001836053963
H           -4.40163615766172        3.32898630440825      -14.76468847572070
H           -6.75964872278294        4.02362708499138      -14.55808363273396
H           -9.27877500227510        4.49449713036392      -13.78152991219214
H          -11.43147452192114        4.65713369485120      -12.58831880019218
H          -11.68425440616150        3.71389470266372      -10.33344910704204
H           -9.79203786909475        2.58947258817120       -9.22602561757458
H           -8.65991381668122        0.31684611228039       -9.46513179121434
H           -9.85915771582257       -1.42463943281073       -8.31322353000673
H          -10.37184372047017       -5.79620670493065       -9.39724797115042
H          -10.54120883932915        0.64330882843472       -2.69972308784948
H          -10.10440090851544        2.89455319343101       -3.15840657768743
H           -9.67259092279680        3.92072881656870       -5.18907843360958
H          -17.72516140474570        6.75608320432617       -4.38773924613626
H           -9.98581012349285       -3.95571680999925       -4.57022401462339
H          -11.63692183751895       -0.52485020234027        4.60929373020202
H          -19.58479539713406        6.50962178301048        2.18687206711155
H          -15.09249957247864        3.67767322263987       -7.29417118143370
H          -17.20750097734464        2.92215169420030       -8.33487533724052
H           -4.07535702688109        0.12673497993246       -5.26441184382757
H           -2.87152108503389        0.56861853211705       -3.16009392787511
H           -0.36997264417759        1.50853315162960        2.49949880913853
H            2.08391706754126        1.70489620510493        2.49716114844795
