90
 energy: -19.946658020014 gnorm: 0.000272782071 xtb: 6.5.0 (97a52f5)
C            1.36788717401757        2.69899895431270        2.69805398784957
C            0.97129232597973        2.62450111130290        1.37732947633068
C           -0.36420330572916        2.49994077039539        1.06468595247307
C           -1.32802669894048        2.44870635644965        2.06774138886268
C           -2.75557160393704        2.30753389799783        1.73144267530384
N           -3.61847095667157        2.26518559251612        2.73405315012376
C           -4.88389727898672        2.12740794471009        2.36907647763867
C           -5.89123154246139        2.06441799411210        3.44263041696963
C           -7.24610961980168        1.95347615643995        3.14378630899045
C           -8.18502999187964        1.88774399902025        4.14949892801091
C           -7.78719386826442        1.93077852593697        5.47136572873146
C           -6.44674365375789        2.04106235249770        5.78469300898317
C           -5.50718517118783        2.10780522949205        4.77986805657335
N           -5.31605873682732        2.03061113858672        1.12142078670582
C           -4.36354697758029        2.08255813228182        0.20307422922586
C           -4.76481659262483        1.95202067616776       -1.20586272608949
C           -6.09679046608755        1.74812587841838       -1.56174766267903
C           -6.45514166343805        1.58017926326852       -2.87782209629737
C           -5.49246182107357        1.60971129567927       -3.88339008213944
N           -5.83719909714639        1.34814302551063       -5.25387424816915
C           -5.34542965980490        2.05373334228631       -6.37320490916854
C           -4.64852886266035        3.25923820837890       -6.45187954552287
C           -4.30732549058535        3.74773321990891       -7.68920890020150
C           -4.65449436701578        3.05862857059844       -8.85321901011337
C           -5.34243981934966        1.87148438681652       -8.79023177581327
C           -5.68826043339520        1.35441244846610       -7.54224842312330
C           -6.40116421214517        0.16328328979889       -7.13604230453455
C           -6.91793640203298       -0.93825428193282       -7.83065975074058
C           -7.54596180860984       -1.94794081211006       -7.10609959422485
C           -7.65917919537948       -1.89299287463683       -5.70749920727102
C           -7.13123240727330       -0.83029922254843       -5.02149591369016
C           -6.50290578496070        0.20059295527368       -5.72953156636550
C           -7.93301033221112       -3.02803945716502       -8.01567874252374
C           -8.57676148349243       -4.22919763211148       -7.74954240006064
C           -8.78843989044800       -5.11593409556283       -8.78474218945505
C           -8.35846108390162       -4.81671546410579      -10.06708536109900
C           -7.71456695882913       -3.62251967818124      -10.33577036429044
C           -7.50860597498992       -2.72152679351069       -9.31000941126607
C           -6.81103306659780       -1.35179760743325       -9.30949325265423
C           -7.56702445643843       -0.38725459390942      -10.23372794376164
C           -7.57117876456522       -0.58083040449103      -11.60716255984641
C           -8.26634208443046        0.26619159031761      -12.44511609942457
C           -8.98445177021132        1.31941820758874      -11.92100868666105
C           -9.00837381701521        1.51729520623834      -10.55719281883353
C           -8.31025460439587        0.66797385439986       -9.72422340798169
C           -5.32656403595234       -1.52188713325607       -9.66285111861343
C           -4.69430568003958       -0.81321153244434      -10.67448948413125
C           -3.34660667934364       -0.97589347653970      -10.92127508342566
C           -2.60445778517648       -1.85289775837711      -10.15939219246723
C           -3.21531889052233       -2.56677403342959       -9.15106631437344
C           -4.56247603972088       -2.39986744102857       -8.90849220507949
C           -4.16425586636073        1.83220578637118       -3.53120002868414
C           -3.80742124819120        1.99954058811523       -2.21653348220042
N           -3.06986365806118        2.22295086865126        0.44914299579038
C           -0.91183579264022        2.52588604281266        3.39364892121865
C            0.42415678556209        2.64979708532732        3.70524448512188
H            2.41312803779008        2.79538746231805        2.94245718753737
H            1.70710193168686        2.66256191082368        0.59071983411879
H           -0.68070427345164        2.43874148885927        0.03831198130207
H           -7.54821402351341        1.91952597851359        2.11182333615306
H           -9.23104217486701        1.80159358028487        3.90461692800957
H           -8.52211103567502        1.87783565990527        6.25792505060266
H           -6.13533831885453        2.07375143221314        6.81598920418562
H           -4.46104626913016        2.19274481262356        5.01596566732355
H           -6.84059830002033        1.71338649802163       -0.78536971328885
H           -7.48512907947895        1.42558029199893       -3.14766566616376
H           -4.40077143460571        3.79260834542555       -5.55162556679809
H           -3.77060935161537        4.67915387678061       -7.76452538268901
H           -4.38359066429696        3.46660525952541       -9.81311626252269
H           -5.63579706203410        1.35139240430318       -9.68175943359429
H           -8.13599512338782       -2.70236701302965       -5.18365872795317
H           -7.17921484623847       -0.78582801042446       -3.94870269734800
H           -8.89656359447499       -4.45696658328303       -6.74807623330175
H           -9.28732050173077       -6.05170332975489       -8.59263481597204
H           -8.52378575394508       -5.52342804160629      -10.86371595206028
H           -7.36359856404294       -3.40093195070422      -11.32725212558216
H           -7.01234849975872       -1.39979292862193      -12.02472342747257
H           -8.24834741318721        0.10339282243465      -13.51042990904336
H           -9.52773854292330        1.98255646230435      -12.57430837112428
H           -9.57280850359057        2.33580432579435      -10.14120780292182
H           -8.33912773934517        0.82619287585389       -8.66099287802234
H           -5.25710947038922       -0.12038863184369      -11.27291120046143
H           -2.87240553842077       -0.41414573544974      -11.70945545770607
H           -1.55110864220392       -1.97874912647672      -10.35001535923371
H           -2.64035525446244       -3.25194657368993       -8.54973864301100
H           -5.03742531086792       -2.95013515716276       -8.11473452235029
H           -3.41626759243309        1.84151624119208       -4.30450358731097
H           -2.77765300554734        2.15534213512215       -1.94726071481665
H           -1.65261619716958        2.48549909238532        4.17270317376563
H            0.73340327942191        2.70734047148058        4.73606597585346
