88
 energy: -19.757020127257 gnorm: 0.000730314848 xtb: 6.5.0 (97a52f5)
C            3.56913822683684        2.11726126874279       -0.21177632317762
C            2.71012325668578        1.94637830369128       -1.27970494775147
C            1.34926385947580        2.04699742040061       -1.09294595741525
C            0.82254870825272        2.32134781031945        0.16615407245790
C           -0.63338927196527        2.42651506655522        0.36614769654784
N           -1.06130491000679        2.69821449223910        1.58909842315877
C           -2.37746884311285        2.77269296990214        1.71027460629077
C           -2.91919483828531        3.06815358263844        3.04821724614166
C           -2.06948270301558        3.26640904394099        4.13260409256570
C           -2.57749760542069        3.54086709758125        5.38307844045683
C           -3.94311422250529        3.62122540352008        5.57257485997301
C           -4.79981451760054        3.42661262395535        4.50703031769119
C           -4.29292659920312        3.15236791217552        3.25607668720660
N           -3.24723953048976        2.59961779405196        0.72813015130317
C           -2.70494727316847        2.33358937386169       -0.45022253400859
C           -3.62032074294029        2.11009360828382       -1.57940044309338
C           -5.00072108622146        2.15104639941225       -1.39523568769279
C           -5.85680586231756        1.91398867368944       -2.44245616190932
C           -5.36202632569096        1.62799884274299       -3.71193189738527
N           -6.25855211950271        1.32665174493853       -4.79350985321227
C           -6.19976235781371        1.83913458116843       -6.10316445545240
C           -5.32822485967851        2.77259231007341       -6.66425253739435
C           -5.41104061026125        3.03080245801066       -8.00925630403417
C           -6.33591321041450        2.35722463903774       -8.80959118604668
C           -7.20700594406026        1.44260849369813       -8.26845457426281
C           -7.17638278740660        1.20067139917580       -6.89146690340453
C           -7.90569910609674        0.29773259891151       -6.02343604190234
C           -8.98425653165216       -0.60118629921598       -6.19687901591488
C           -9.28058388827701       -1.48306136509472       -5.15614389795335
C           -8.61368401683468       -1.44857315536189       -3.93471386945871
C           -7.62585896189426       -0.51794637757077       -3.72581769221001
C           -7.27571246893803        0.35221854470333       -4.76187960582806
C          -10.39045780623325       -2.43143104294131       -5.59605520892105
C           -9.94110685370966       -3.89216298654330       -5.61395378843753
C           -8.90937500384024       -4.49833426469903       -6.29913832410274
C           -8.70576805216688       -5.85620345978973       -6.13438651592714
C           -9.52299194979418       -6.59697982356205       -5.29486258397586
C          -10.55660207856202       -5.99588773543895       -4.60446467619929
C          -10.76582693454391       -4.63376024567892       -4.76561664686104
C          -11.76890638290187       -3.74254513736214       -4.16008079707620
C          -12.78591864588061       -4.01314170850665       -3.25588107385207
C          -13.59575213915996       -2.97744568946286       -2.83420930949646
C          -13.39836888281126       -1.68809705579973       -3.30328647431589
C          -12.38564378514606       -1.41146797593633       -4.20335331145291
C          -11.57413004288778       -2.44183195787612       -4.62895131637238
C          -10.76360808193167       -1.91053149702620       -6.97859675526314
C          -11.77884084316769       -2.31099010797462       -7.82163775251410
C          -12.00776655500462       -1.59237349494115       -8.97963129731579
C          -11.24979434178765       -0.46990265733074       -9.26980068448441
C          -10.23468670624255       -0.06482271285830       -8.42652553227520
C           -9.95523099683384       -0.81142815636272       -7.28785627229980
C           -3.98314794583908        1.59700764410109       -3.90134369345187
C           -3.12781567254342        1.83274554779188       -2.85291868186868
N           -1.40642209171492        2.23714750986000       -0.69110627604042
C            1.70183759866237        2.49055863572813        1.23190694093965
C            3.06253777697148        2.38942431464161        1.04414401525192
H            4.63399088882228        2.03831986870469       -0.35790121032731
H            3.10471039749696        1.73401355455939       -2.26009324505393
H            0.67341635313367        1.91437349063841       -1.91954550843979
H           -1.00696773237015        3.20075631602512        3.97740599449763
H           -1.90845513277193        3.69203107643153        6.21441266251106
H           -4.33990836972093        3.83496886514486        6.55157831972427
H           -5.86565101741732        3.48881097692628        4.65431242088070
H           -4.95377012346143        2.99836933033359        2.42123056165401
H           -5.38606159729936        2.36602868504508       -0.41416543318486
H           -6.92214101503750        1.95035578590156       -2.29594505908543
H           -4.60644170740338        3.27114778301111       -6.04247956610165
H           -4.74209339559186        3.74711476856608       -8.45730013913590
H           -6.35708160474722        2.54971690889913       -9.86979431553765
H           -7.85062488711022        0.86729969759924       -8.90562476475592
H           -8.88895874603205       -2.14678246101078       -3.16394111001663
H           -7.09770129913850       -0.47115422336940       -2.79075115391783
H           -8.28083271178153       -3.91259821042564       -6.94680099030590
H           -7.90343666298894       -6.34236176283231       -6.66473848108089
H           -9.34975962224879       -7.65427508248184       -5.17863154299694
H          -11.19372282044886       -6.56299705697727       -3.94896952036606
H          -12.93057628804765       -5.01611929437261       -2.89487386244172
H          -14.38919549068879       -3.17414710689042       -2.13199988689804
H          -14.03973446908897       -0.89192819665659       -2.96260524357187
H          -12.22148573150042       -0.41443522193201       -4.57298731070399
H          -12.38603212177905       -3.16020053592901       -7.56101708640083
H          -12.79770244047844       -1.89320520077641       -9.64794212212194
H          -11.46530175032171        0.10283236166109      -10.15702727097330
H           -9.71877294237211        0.85869879863098       -8.60642525115538
H           -3.59730607408713        1.35981311844458       -4.87715433781097
H           -2.06272150858228        1.79522693901863       -2.99916281798964
H            1.29948213673513        2.70077017560663        2.20740626258057
H            3.73229104660355        2.52141265014275        1.87825032081814
