68
 energy: -15.304562241928 gnorm: 0.000613764020 xtb: 6.5.0 (97a52f5)
C            0.97368908704212        2.77297988891990        2.83350977413038
C            0.69752104035280        2.96738514749267        1.49459680681180
C           -0.54658290436049        2.65314589741617        0.99465734940889
C           -1.53745198095263        2.13852586430520        1.82554730001114
C           -2.86343485654863        1.78967100047017        1.28798773847231
N           -3.75177282701262        1.29280232656390        2.13386660455394
C           -4.91735780433204        0.97948362028778        1.59071526764865
C           -5.95092868481879        0.42467570613576        2.48117142164808
C           -7.19129465664329        0.04209381112055        1.97929065828872
C           -8.15989015810033       -0.47089699556986        2.81308699842549
C           -7.90700755734339       -0.61019951896738        4.16329689122021
C           -6.68140454828157       -0.23526425362557        4.67705233464005
C           -5.71183653532187        0.27733385379594        3.84414692078589
N           -5.23021200303614        1.12548520207063        0.31326279308698
C           -4.26794794661497        1.64001184328688       -0.43642000758947
C           -4.55122565019361        1.82947987260097       -1.86696404408389
C           -5.73131000274266        1.34943236080606       -2.43101846243796
C           -5.98888479793607        1.51638449315787       -3.76976852900622
C           -5.07811200117845        2.17684756162399       -4.58882199871956
N           -5.33828124572223        2.34065343961298       -5.99275373257055
C           -5.30221447253670        3.55583748195725       -6.70846130624861
C           -5.07406319139233        4.86606549256172       -6.28822886047665
C           -5.11115934121449        5.87428645329195       -7.22012484060799
C           -5.37355054489378        5.60458932904992       -8.56757324905345
C           -5.60419726871881        4.32170020849702       -8.99872676136752
C           -5.57036428541492        3.28841857720541       -8.06164975477577
C           -5.76858850005479        1.87386947150640       -8.18108959046329
C           -6.03671521371222        1.04270979425109       -9.29605294955489
O           -6.21304694706200        1.33789110864625      -10.63337118598884
C           -6.44068111172429        0.12756640634442      -11.27166363416281
C           -6.67898189366264       -0.15813315184656      -12.62130508507754
C           -6.87647443761447       -1.45836583367843      -13.00593960715028
C           -6.84503405586333       -2.50297294263316      -12.07506440688928
C           -6.61405232330811       -2.25464075120759      -10.74715158406722
C           -6.40982108318435       -0.93310147312040      -10.33854869675339
C           -6.14911166170967       -0.34326399432084       -9.06365187765338
C           -6.00237386274347       -0.89881912184878       -7.77283080398957
C           -5.74161949478994       -0.08212340626905       -6.70853687653790
C           -5.62622030233658        1.30970666847311       -6.90842374565137
C           -3.90202328599239        2.66433534828108       -4.02725372862088
C           -3.64172572763465        2.48972606726011       -2.69027863856992
N           -3.06751389541706        1.99263584803699       -0.00344523371061
C           -1.24344109993506        1.94981630627288        3.17271557006104
C            0.00118689486336        2.26413343345560        3.67145536238919
H            1.94783799885214        3.01772487715594        3.22406183328313
H            1.45640878541286        3.36375561454608        0.84009430770235
H           -0.76880340602935        2.79842655329464       -0.04786923036363
H           -7.38083535619078        0.15496056896524        0.92642735431452
H           -9.11646617525820       -0.76283018155745        2.41170172314723
H           -8.66567595982123       -1.01070443039978        4.81554535538382
H           -6.48394873824920       -0.34280355573690        5.73092753617269
H           -4.75504065925254        0.57331079027270        4.23672573099566
H           -6.43804060902994        0.84159406160308       -1.79872619512312
H           -6.90297255246947        1.14745033044388       -4.20093886491088
H           -4.88073374328103        5.06810934650640       -5.24999457104918
H           -4.93584425829287        6.89101560474639       -6.90929551754935
H           -5.39646443977184        6.41610878242636       -9.27604516158535
H           -5.80941206713437        4.09798519583461      -10.03061097923434
H           -6.70053551000193        0.64775263396394      -13.33259854797061
H           -7.05897156081835       -1.68250701439873      -14.04405435857679
H           -7.00468437785779       -3.51511844376771      -12.40821646373271
H           -6.58775627994215       -3.05027384699447      -10.02383273127671
H           -6.09302014169694       -1.96263020206478       -7.64397286745637
H           -5.61346611032994       -0.48379484779336       -5.71977665142536
H           -3.19271640967496        3.16627029790952       -4.66166148453222
H           -2.72852954358398        2.86072814738264       -2.25951189763859
H           -2.00567184872713        1.55074351158184        3.81847238486323
H            0.21685610274493        2.11147776448927        4.71625869632580
