78
 energy: -17.487190919701 gnorm: 0.000944061085 xtb: 6.5.0 (97a52f5)
C            1.97262796459674        3.13296158948052        1.33611034281105
C            1.42092018752665        2.89659809085758        0.09242186870715
C            0.07959091261921        2.60673734709888       -0.02427509822310
C           -0.73516283926644        2.54730073372213        1.10246260194481
C           -2.16748470379994        2.22636625128661        0.97946372435004
N           -2.88120219929176        2.19441301292221        2.09364566013100
C           -4.15791118977080        1.88852860189620        1.92442158449336
C           -5.00840873627468        1.84682222773530        3.12624120386955
C           -6.35904999054154        1.52422346051067        3.03236269117313
C           -7.15457941466619        1.49176793108055        4.15612861058603
C           -6.61470695692469        1.78133461900947        5.39367514146670
C           -5.27625341815076        2.10259210192051        5.50390990977829
C           -4.47967357804224        2.13485423005714        4.38099002750803
N           -4.73316424888248        1.61975826633959        0.76349975484350
C           -3.92428718773757        1.68902671316367       -0.28238349079677
C           -4.50406502841174        1.40686784093043       -1.60400842349758
C           -5.82166247699707        0.97078156246419       -1.72648129756249
C           -6.35996331076883        0.69681052182731       -2.95988963472698
C           -5.60029364757407        0.85694797200802       -4.11519189199472
N           -6.15913834686310        0.56252515886317       -5.40560312590539
C           -6.15031613767925        1.41433450715015       -6.53151311432938
C           -5.66619858803224        2.71197885387365       -6.69089558817992
C           -5.80369804503635        3.32230282663560       -7.91365819399730
C           -6.41689909206454        2.66424328109344       -8.98301537242176
C           -6.90221606123043        1.38599721106286       -8.84172194079914
C           -6.77050314644136        0.75351816519882       -7.60535691370000
C           -7.16798777952602       -0.55287231298586       -7.13284777295891
C           -7.78825501390040       -1.62685843017117       -7.76442162822271
C           -8.02591905745024       -2.79543957517633       -7.05245265760678
C           -8.67314347839073       -3.95372530256283       -7.70511123568325
C           -8.24338546074972       -5.27054973805405       -7.41927215842184
C           -8.81675013129335       -6.36540576965535       -8.00471072636033
C           -9.86361949022269       -6.18604390035467       -8.91762859673517
O          -10.59899046246139       -7.11310491475008       -9.63815030566131
C          -11.51151163307628       -6.39340361221998      -10.39570166971982
C          -12.48933688983933       -6.83059887522326      -11.29749053492216
C          -13.27609317618282       -5.90564730118006      -11.93265629456191
C          -13.11915927599849       -4.53539664773149      -11.69630583696323
C          -12.17105497644708       -4.07812944087328      -10.81749357962532
C          -11.36240199983952       -5.00947268764208      -10.16125361354456
C          -10.30025670842390       -4.87579427433631       -9.21015679177346
C           -9.70599139387663       -3.76726190234674       -8.60932813130944
C           -7.63434390216478       -2.86465798202793       -5.69730347882924
C           -7.02245949718126       -1.81365171591060       -5.06527518751736
C           -6.78478292857883       -0.64217882409111       -5.78371340898691
C           -4.28554156045296        1.29838161221771       -3.99717151652785
C           -3.74659272104900        1.56525046555720       -2.76256593487267
N           -2.63564091713120        1.99003273086084       -0.23530375941167
C           -0.16383658096417        2.78909648875500        2.34841650157579
C            1.17757826217860        3.07905877706921        2.46380617069900
H            3.02259522598618        3.35832527394334        1.42714912934053
H            2.04114622605951        2.93691080902094       -0.78799510359131
H           -0.35686624230224        2.42008608223210       -0.98965037786614
H           -6.77243315785647        1.30060333948496        2.06469717097577
H           -8.19895316414003        1.24040411791079        4.06946591565052
H           -7.23785399630667        1.75649128269555        6.27261069950364
H           -4.85424674353202        2.32935110903761        6.46925119076579
H           -3.43631775665337        2.38529986002404        4.45834372884943
H           -6.41156209898490        0.84954725804428       -0.83511974675876
H           -7.37974376297952        0.36601143326351       -3.05000148638570
H           -5.20354829669959        3.21595174532264       -5.86145854424127
H           -5.43483747945156        4.32547445168462       -8.05065123239040
H           -6.51217841075304        3.16757311494779       -9.93099619784581
H           -7.37782764293185        0.87336071256156       -9.65894171070502
H           -8.05938066779248       -1.55423542518508       -8.80104202091993
H           -7.42778866843577       -5.40575039386517       -6.73042806080706
H           -8.47948423361768       -7.36186417692660       -7.78282405759471
H          -12.60535607882465       -7.88450898896070      -11.47558355593078
H          -14.02993312521888       -6.23773876827643      -12.62749256072185
H          -13.75175650703157       -3.83197789009885      -12.21215783777781
H          -12.04145553155872       -3.02715120052715      -10.62873825181637
H          -10.06070576775346       -2.77967637218098       -8.83815353883090
H           -7.83594183629018       -3.76810453731001       -5.14875704327132
H           -6.71921301161614       -1.87925149326299       -4.03588516418931
H           -3.69328401827693        1.41177767281637       -4.88816932649604
H           -2.72810126296968        1.89972763631420       -2.67330111411894
H           -0.78920620500067        2.74324673595043        3.22250798402183
H            1.60732026759695        3.26310666564542        3.43486422598247
