78
 energy: -17.612399095014 gnorm: 0.000951642134 xtb: 6.5.0 (97a52f5)
C            1.78376092488279        3.47961802539502        1.33518811419340
C            1.25091549166333        3.22673572078768        0.08667388992299
C           -0.06361699446282        2.83508464217592       -0.03575879468543
C           -0.86932769102539        2.68886607278379        1.08970191059693
C           -2.27267173461768        2.26228739911163        0.95960156034198
N           -2.98038951050255        2.15058891590026        2.07244034951704
C           -4.23040692026025        1.75343661954053        1.89539064373072
C           -5.07250835017531        1.61424689224601        3.09542944086299
C           -6.39400797877395        1.19062951205382        2.99136717903133
C           -7.18230675978516        1.06398785092361        4.11343335215271
C           -6.66434503719073        1.35852837335036        5.35924736084170
C           -5.35488196832447        1.77966408510327        5.47953687923473
C           -4.56559281975039        1.90650423117832        4.35821969687348
N           -4.78475407604752        1.46933326860254        0.72816510094252
C           -3.98414174095450        1.62015714712840       -0.31528754111116
C           -4.53960695043179        1.31797736401401       -1.64238118240758
C           -5.83028697577979        0.81064024918736       -1.77552232396207
C           -6.34479835471511        0.51493698072139       -3.01384977712848
C           -5.58762850336000        0.72197028371614       -4.16330955945188
N           -6.12430646486238        0.40647881852792       -5.45778936948171
C           -6.17170112213477        1.27045984747135       -6.57340167688665
C           -5.74923737423961        2.59034858989891       -6.72457112919723
C           -5.93340906080739        3.20811610466380       -7.93739585440998
C           -6.53384248199211        2.53517998601864       -9.00474464641256
C           -6.96037164213513        1.23535772580114       -8.87121503099665
C           -6.78124671435185        0.59561112294581       -7.64463070731310
C           -7.11805147407060       -0.73028327679755       -7.17969211330953
C           -7.71484900639866       -1.81864370449376       -7.80912261877067
C           -7.89710849593335       -3.00119444354357       -7.10416228721731
C           -8.52669732890826       -4.17148083521059       -7.75282331585545
C           -8.02486559053671       -5.47306196957558       -7.52188860087724
C           -8.58746041670279       -6.57131021256837       -8.11087989352342
C           -9.67645970252809       -6.38496818218756       -8.94878782513691
S          -10.62470521924426       -7.44243260568818       -9.82939271099883
C          -11.72152066709568       -6.41589274758974      -10.56481442965681
C          -12.78327722403112       -6.63708939440709      -11.42816652586923
C          -13.50516441226599       -5.55570164842424      -11.85965774564424
C          -13.17540640252419       -4.26284055803022      -11.43856783111391
C          -12.12382529253608       -4.04230132552488      -10.58447337390560
C          -11.36528184566153       -5.13485573534451      -10.12438899079193
C          -10.21078756465380       -5.11732184070637       -9.21234363725092
C           -9.61343536087839       -4.00511989615687       -8.59770351289981
C           -7.47241976498965       -3.07159871144895       -5.75922302664565
C           -6.88629011647476       -2.00526859180715       -5.12854937937080
C           -6.70665007952064       -0.81856513596790       -5.83888226796054
C           -4.30004819674485        1.23467871754350       -4.03443930920660
C           -3.78466771429889        1.52481971039455       -2.79501275342297
N           -2.72255228337568        2.01725024266955       -0.26031126051349
C           -0.31719902630831        2.94770639437327        2.34059756511043
C            0.99749109009740        3.33919153897208        2.46188238212286
H            2.81298008736883        3.78426888489389        1.43089044168484
H            1.86428245128474        3.33578643530801       -0.79278181200729
H           -0.48601764308266        2.63389358428168       -1.00448153083397
H           -6.79004291385586        0.96359770924265        2.01714236720978
H           -8.20417074970809        0.73515745379004        4.01925042069561
H           -7.28189134153997        1.26014810304666        6.23697341872210
H           -4.95038004525425        2.01014323139539        6.45153715714137
H           -3.54474130846210        2.23475996051576        4.44327218326483
H           -6.41801677696569        0.65196791268759       -0.88858500873122
H           -7.34486334984706        0.13074933660453       -3.11293865721421
H           -5.29657228777995        3.10517634241162       -5.89629590851926
H           -5.61264579124174        4.22846000335621       -8.06810700177431
H           -6.66618029696803        3.04464396011644       -9.94497453525011
H           -7.42621790079460        0.71155571532133       -9.68697232099493
H           -8.01366361700117       -1.74499841201497       -8.83806691535550
H           -7.17049306120527       -5.59160744275704       -6.87843311556628
H           -8.20972460743331       -7.56400848537810       -7.94226176357187
H          -13.01811281032133       -7.63978163505466      -11.73824974910296
H          -14.33621972342375       -5.70116949270241      -12.53009541827070
H          -13.75781304413896       -3.42805973251258      -11.79152826341054
H          -11.87279814664137       -3.04712817816770      -10.26346788765735
H          -10.01119545959123       -3.02348523264010       -8.77380652924288
H           -7.62935646932372       -3.98798750440163       -5.21752089395235
H           -6.55891978561594       -2.06991370340401       -4.10650063883681
H           -3.70926188204904        1.38446125032522       -4.92105013296459
H           -2.78681284144431        1.91452507656302       -2.69659290313685
H           -0.93554148480547        2.83442743405544        3.21369414440296
H            1.41398370524759        3.53438580723643        3.43646643075065
