90
 energy: -19.949812248079 gnorm: 0.000324545614 xtb: 6.5.0 (97a52f5)
C            2.44619826610784       -0.66361999335484       -0.53080408268109
C            1.71539432816526       -0.21612588965122       -1.61388620690922
C            0.35963040037727       -0.00570391062310       -1.49188336592902
C           -0.28994640612495       -0.23947693750788       -0.28332578088310
C           -1.73886311221771       -0.00811055487220       -0.14843721883563
N           -2.28086307570862       -0.23920815138972        1.03751150328238
C           -3.58218432954326       -0.00757599870139        1.10486720038640
C           -4.25173160847013       -0.24971552877832        2.39475327782636
C           -5.62279245978914       -0.05087664289024        2.53037898593276
C           -6.25129592658423       -0.27836649516964        3.73455269674945
C           -5.52095796960055       -0.70801382888720        4.82501929313071
C           -4.15973977664371       -0.90977618196801        4.70722091735036
C           -3.53017395148489       -0.68284510058118        3.50327825576464
N           -4.33342038670991        0.42553538399857        0.10591297087718
C           -3.68504748258857        0.61992956325532       -1.03235149723366
C           -4.47517094135080        1.10220328900400       -2.17529617839358
C           -5.82376637333926        1.41051747029921       -2.01454153071544
C           -6.57247489956542        1.85975336934889       -3.07290913625014
C           -6.00218672968298        2.01139352340701       -4.33379708859635
N           -6.80557110392444        2.46540122487581       -5.43407977442658
C           -6.50664137389970        3.51683778311801       -6.32960041990337
C           -5.35981746859493        4.29671170885770       -6.47569554501436
C           -5.34776217521932        5.28487978222564       -7.42987314192415
C           -6.46187351658455        5.51759682945570       -8.24036265890213
C           -7.60504117893926        4.76706789465798       -8.10228649592579
C           -7.63098172563839        3.75880774501031       -7.13866597011510
C           -8.66295959370931        2.83267771828800       -6.73290174851958
C           -9.98111679711767        2.65873164329059       -7.15472662592607
C          -10.72917454862380        1.67778601233397       -6.52813285690649
C          -10.17238215390781        0.86820373557894       -5.51179350768025
C           -8.87712611383148        1.03371287854731       -5.09427127862347
C           -8.12164526853082        2.04139807724203       -5.69766493918300
C          -11.23005769747106       -0.11930552158284       -5.00641132697779
C          -10.76046274862815       -1.54572024069412       -5.30906962686898
C          -11.17687225758123       -2.21513464531351       -6.44984546501671
C          -10.71298086904434       -3.48189154379908       -6.73779898661772
C           -9.81333780144868       -4.09567766191676       -5.89209021852054
C           -9.37672029401795       -3.43709814092811       -4.76200906229649
C           -9.84397220187720       -2.17076779787754       -4.47721593075541
C          -11.52673896082951        0.07366259155960       -3.51612910836788
C          -12.17487866723194       -0.91836029975580       -2.79637957519107
C          -12.46814009426688       -0.74736185986426       -1.45927106515428
C          -12.12529408448104        0.42663010074168       -0.82238128162591
C          -11.49546088003429        1.42991434749252       -1.52811936176427
C          -11.20505997742216        1.25522570151844       -2.86526923923364
C          -12.46280799074860        0.27021668786323       -5.83400881391309
C          -13.74269385506254       -0.24471514262427       -5.81078376889755
C          -14.68994890141581        0.26939778578621       -6.67721279068999
C          -14.36392423024097        1.28891151453606       -7.55736070215242
C          -13.08785503788764        1.81345172276581       -7.58534547143964
C          -12.13298319571823        1.30075823219217       -6.71805408998475
C           -4.65383781704219        1.70626755019465       -4.49826147743731
C           -3.90324142805653        1.26110414949017       -3.43633465950889
N           -2.39001532619451        0.41740934619172       -1.21976430184963
C            0.46104894012480       -0.69073084512167        0.79831038718871
C            1.81664456661214       -0.90079627436007        0.67525269406123
H            3.50716229191366       -0.82713955994052       -0.62654692670927
H            2.20649296207307       -0.03072641896447       -2.55515846863462
H           -0.21614544371281        0.34454668198547       -2.33042613651662
H           -6.18492521444198        0.28343875944396        1.67616391019186
H           -7.31362184340939       -0.12095623869224        3.82559217329889
H           -6.01305017884577       -0.88557441151057        5.76730855520948
H           -3.58946307227320       -1.24490166546896        5.55811807577560
H           -2.47023076205777       -0.83745462826119        3.40380723548270
H           -6.27014893632680        1.29229388540479       -1.04293827926495
H           -7.60919191620882        2.11288458412517       -2.93636629678547
H           -4.51005894485275        4.12398218708216       -5.84034345759081
H           -4.46659565565945        5.89262479996239       -7.55440507235674
H           -6.42506175760806        6.29994107739038       -8.98054473113770
H           -8.47016016812870        4.94477909376449       -8.71634739669359
H          -10.40289060340915        3.27536099377913       -7.92571451685285
H           -8.45759052023389        0.41279712117309       -4.32631343848161
H          -11.86826707615300       -1.73353147964279       -7.11861039840576
H          -11.05206579256359       -3.99056050197237       -7.62542802498923
H           -9.44964494766234       -5.08528578826315       -6.11591340281231
H           -8.66841501130437       -3.91055854981991       -4.10193700075784
H           -9.50001231069364       -1.65587466527575       -3.59684562259399
H          -12.44258996597748       -1.83485561623650       -3.29333484250678
H          -12.96514967820902       -1.53209051280113       -0.91266872674786
H          -12.35204933479906        0.56112196557462        0.22269246773539
H          -11.23075362980222        2.35120570735745       -1.03539305432929
H          -10.72289100766264        2.04389328373415       -3.41569926016608
H          -13.98811121041207       -1.03751401383764       -5.12647594825705
H          -15.69174344470624       -0.12762700211713       -6.66713676309712
H          -15.11491513599912        1.67775029381193       -8.22537391331392
H          -12.82676570552617        2.60769308938217       -8.26222516440636
H           -4.21280855046759        1.80505745622036       -5.47448608665130
H           -2.86230355715419        1.02290596860512       -3.56633631072144
H           -0.03625305339185       -0.87138571866220        1.73502148101100
H            2.38641543902790       -1.24931035217390        1.52113053322300
