88
 energy: -19.764603944338 gnorm: 0.000810452226 xtb: 6.5.0 (97a52f5)
C            2.57231643360278       -1.14178543678570       -0.45109015555039
C            1.83689497244131       -0.79576846024792       -1.56766616959350
C            0.56564007209567       -0.28506394899102       -1.42541340556356
C            0.00647542679928       -0.11083867667467       -0.16276302368224
C           -1.35165754546582        0.43960462660044       -0.00968736196410
N           -1.80902487544951        0.59390600226129        1.22314544561851
C           -3.03298244281592        1.09220887342831        1.29979880823173
C           -3.60614461657416        1.27820682263232        2.64430446937526
C           -4.88393134478522        1.80635896656202        2.80566337697079
C           -5.42165361616097        1.97625352476729        4.06221313342046
C           -4.69174864997086        1.62146541692455        5.17964905033802
C           -3.42251190532254        1.09599232595319        5.03677160110122
C           -2.88410540128521        0.92519235436583        3.78067498795193
N           -3.78556286787518        1.43522210792957        0.26691629803104
C           -3.22468916580980        1.23722240111638       -0.91618596781029
C           -4.01756499052043        1.58894983772042       -2.10405128194644
C           -5.24677131546121        2.23102415609541       -1.97211230803101
C           -5.99997047201633        2.54017152045209       -3.07770433765822
C           -5.55484152964833        2.21099020549099       -4.35517100773250
N           -6.37301653848263        2.47990787836974       -5.50396083165750
C           -5.95269353982639        3.03690582042283       -6.73206768315530
C           -4.70651319733217        3.50766118419417       -7.14468801164420
C           -4.57996954699801        4.02356997918142       -8.41153539414108
C           -5.67433434265758        4.08316110019699       -9.27816461717347
C           -6.91144092672066        3.63058472783827       -8.88590775037659
C           -7.05472160496854        3.10465158605611       -7.60192010806140
C           -8.19613608151456        2.57174167328367       -6.89519528934168
C           -9.52657199808193        2.39561679980918       -7.27609765530433
C          -10.38885360482903        1.84127447209813       -6.34756762897849
C           -9.93222488462020        1.46528599102635       -5.06327791241526
C           -8.62565675734592        1.62706828579473       -4.68392336220676
C           -7.74779284313280        2.19524815868070       -5.61036407830889
C          -11.10454091277373        0.90344578078317       -4.26509362065419
C          -10.84000272613495       -0.51290034834323       -3.75632714066412
C          -10.54563067553608       -1.66808426996361       -4.44927625534692
C          -10.32690009799045       -2.83458003460379       -3.73951799095803
C          -10.40056461765764       -2.84492476808206       -2.35537861229466
C          -10.69461655855073       -1.69173481733606       -1.65552287882704
C          -10.91598912347291       -0.51832762905903       -2.36197254356458
C          -11.23756804989244        0.83694638311785       -1.88611881431575
C          -11.41382003731692        1.32246698049057       -0.59834571840607
C          -11.70827969801077        2.66029779401015       -0.42558848806500
C          -11.82600231489832        3.50705165635944       -1.51665761177983
C          -11.65196212306958        3.02885547651076       -2.80240909257425
C          -11.35988142242837        1.69325064602160       -2.98194023742456
C          -12.27003066682059        0.98060786023189       -5.25011426477462
C          -13.58805985613967        0.60631167988781       -5.09720267828686
C          -14.46175676597188        0.78954200337954       -6.15355376607534
C          -14.02243170840682        1.34059598778808       -7.34735052164657
C          -12.70442000327518        1.71788191400364       -7.50780164847457
C          -11.82219100827020        1.53660182789180       -6.45166154033948
C           -4.32231925043292        1.57790995530026       -4.49039324723104
C           -3.56633790302732        1.27458260167465       -3.38426756486775
N           -2.01419876590972        0.73892060669742       -1.11561871481530
C            0.76068662339620       -0.46541706145487        0.95211931937586
C            2.03179176617003       -0.97607702938832        0.80892008800526
H            3.56730741759461       -1.54069163466963       -0.56260290216964
H            2.25807957354168       -0.92476136109524       -2.55128202050101
H           -0.01331369413765       -0.01228010722312       -2.29014343696436
H           -5.44649765094774        2.08031387797936        1.93053111252401
H           -6.41230603016040        2.38615735883003        4.17284069279164
H           -5.11288353713273        1.75443973482430        6.16274964556137
H           -2.85325553427319        0.81913657783421        5.90907426481642
H           -1.89727682311645        0.51424415267377        3.65961649951958
H           -5.59827308348408        2.47907163477847       -0.98610858566773
H           -6.94158505272913        3.04925752558204       -2.96934436602315
H           -3.87063160876715        3.47321132100147       -6.46945390402577
H           -3.62248530588034        4.39095219599306       -8.74248499564017
H           -5.54653685103009        4.49294562830895      -10.26658939295780
H           -7.76039631954696        3.67693602448533       -9.54483138294469
H           -9.86673772624447        2.68017701275273       -8.25378480920359
H           -8.29090036383505        1.31885631240475       -3.71210297035583
H          -10.48693482611443       -1.64653302583719       -5.52335913863109
H          -10.09496150296236       -3.74425743508236       -4.26862547224090
H          -10.22546037279816       -3.76292689134845       -1.81871408742317
H          -10.75189330511944       -1.69093093110574       -0.58132424179617
H          -11.31976229394604        0.65924470335283        0.24331942943557
H          -11.84744156110210        3.05041961187730        0.56931625494947
H          -12.05484769312169        4.54875926624249       -1.36246413722335
H          -11.73766241687386        3.67663185066786       -3.65717901551623
H          -13.91787475161387        0.18063144897117       -4.16577445138128
H          -15.49463780730290        0.50147651324322       -6.04665811655275
H          -14.71774021059106        1.47579243428797       -8.15955296188393
H          -12.35531852361070        2.14545231366762       -8.43107684969301
H           -3.98238712756350        1.30500542011721       -5.47387348303057
H           -2.61865725748190        0.77687454319309       -3.49120277401027
H            0.33279813882801       -0.33289943248649        1.93023220876624
H            2.60529969850295       -1.24615011666440        1.68054510276614
