81
 energy: -17.989495972989 gnorm: 0.000375862113 xtb: 6.5.0 (97a52f5)
C            1.63894005650998        3.84208490367674        1.58418637279060
C            1.13348795770395        3.47114775072625        0.35370649378711
C           -0.22744946193551        3.36406241980091        0.17120152531701
C           -1.10789906737469        3.62648877318964        1.21681646330779
C           -2.56366246220845        3.51186793121683        1.02189170744834
N           -3.33953176679670        3.78505659068100        2.05916947626419
C           -4.63680585463966        3.65996835457769        1.82684616863782
C           -5.55654264191718        3.93749999286280        2.94396706897471
C           -5.07102300380047        4.34980284963355        4.18152003102665
C           -5.93247582342430        4.60525257838663        5.22546250848800
C           -7.29403685048727        4.45243876113720        5.05212662500012
C           -7.79191507917837        4.04407250194071        3.83048601879157
C           -6.93148035329907        3.78912246019278        2.78572352134886
N           -5.17644695529391        3.30357395605653        0.67235743366878
C           -4.30455494794635        3.05621819598630       -0.29290399478430
C           -4.84355012683327        2.65004512902465       -1.59941157261128
C           -6.21890666358063        2.57023232721785       -1.80594979053683
C           -6.72552444068277        2.18523817621186       -3.02262747354559
C           -5.87412336133545        1.86373996923500       -4.07597320205313
N           -6.40738767818971        1.44049680512608       -5.34010859758426
C           -6.03402348681590        1.92041100185513       -6.61382861037118
C           -5.11197083707481        2.89726301077487       -6.98908204702744
C           -4.96238971736801        3.18843001103115       -8.32289038899684
C           -5.71881434217494        2.52668422086721       -9.29400278701075
C           -6.63827834585403        1.56795854729604       -8.94171492959842
C           -6.80160189438178        1.26224440764043       -7.59012440624065
C           -7.67817986390782        0.34378841144301       -6.90215015555595
C           -8.63970113853703       -0.55477563521738       -7.36825490090028
C           -9.31801980212065       -1.31439908810748       -6.44266513897130
C           -9.04616664168381       -1.19346139537636       -5.05852638766529
C           -8.10164628199906       -0.30970765035936       -4.59396955816552
C           -7.41698970365598        0.47236616331420       -5.52437127964332
C           -9.90052575134355       -2.13020027472565       -4.20652324593489
C           -9.64223180345769       -3.53644112601409       -4.74514775737183
C           -9.18719045371428       -4.62756201940379       -4.02942595630928
C           -9.00307166665801       -5.83359061086280       -4.67640468085435
C           -9.27073243303994       -5.95230322562614       -6.02808780202056
C           -9.72537213322580       -4.86650000384889       -6.75037367242091
C           -9.91211208044013       -3.65589891413715       -6.11038095544221
C          -10.40065182737882       -2.35109766257512       -6.73886606111402
C          -11.62154645688856       -1.92538999353695       -5.92371401569441
C          -12.89065946574768       -1.66431536172725       -6.40460671041552
C          -13.88523999144177       -1.28709443168131       -5.52379413575480
C          -13.61790553520446       -1.17044020982469       -4.17189842158382
C          -12.35243728128080       -1.42910897710773       -3.68335901096642
C          -11.35172099789652       -1.80690329648052       -4.55838619463773
C           -4.49923448914080        1.94577756955098       -3.87387869853501
C           -3.99342347013734        2.33261302401593       -2.65675437869192
N           -2.98847240175642        3.14140764841768       -0.17552133965241
C           -0.58241492249428        3.99879288318972        2.45068509845363
C            0.77873620820455        4.10556815097115        2.63203228691274
H            2.70394932605681        3.92591684289304        1.72653842403597
H            1.80439286481506        3.26471045101492       -0.46410045505539
H           -0.62904600099823        3.07563704244967       -0.78425724878836
H           -4.00915311590895        4.46543911087619        4.30932302352669
H           -5.54346197125352        4.92409078588361        6.17863457146952
H           -7.96761860446532        4.65136620685505        5.86963174696455
H           -8.85432602727401        3.92408100233937        3.69472104379463
H           -7.31167391931821        3.46973605165707        1.83137331775232
H           -6.87964295309461        2.81629604699848       -0.99350880591376
H           -7.78874720286033        2.13968658983637       -3.18060672577633
H           -4.54235570048584        3.41269242474926       -6.23690783041751
H           -4.25296696618822        3.94071544322553       -8.62621738181000
H           -5.58096642283386        2.77516209760041      -10.33342564458908
H           -7.22904523766071        1.05833702579741       -9.68222136918211
H           -8.84140462274612       -0.65021211306108       -8.41879839516635
H           -7.88879123155994       -0.23029746267636       -3.54483590959307
H           -9.69153833630723       -2.03953635962082       -3.13299835733088
H           -8.98027748836515       -4.52616693055476       -2.97824810471551
H           -8.64745924823796       -6.68771866638669       -4.12365638420404
H           -9.12322967032500       -6.89874233624165       -6.52202580750571
H           -9.93474868462076       -4.95056662947481       -7.80257741021497
H          -10.61598250580062       -2.44829135414272       -7.81052431177581
H          -13.09062753850168       -1.75705080810064       -7.45789253717504
H          -14.87674642189952       -1.08221515008884       -5.89314207413377
H          -14.40245900127387       -0.87577529744906       -3.49431626139835
H          -12.13589687255137       -1.34030555430598       -2.63298180154814
H           -3.83816821400984        1.68237740286072       -4.68070475608088
H           -2.93051844010589        2.39023088845078       -2.50147302781230
H           -1.25920330939571        4.20232173548959        3.26182985728475
H            1.17274105015243        4.39528591239337        3.59239807362364
