47
 energy: -9.343023065575 gnorm: 0.000702975933 xtb: 6.5.0 (97a52f5)
C            1.30727392581466        0.23986376816547        0.32109821967360
C            2.80271816056920       -0.10316051874244        0.18183411392765
C            3.32914625004281        0.40829199750713       -1.17237190834883
C            3.57190885852524        0.61935342631515        1.30567966656079
C            2.98191387347961       -1.62761950741891        0.25419434342290
C            3.76358321514750       -2.24161294798103        1.24667780163961
C            3.90922705350282       -3.60409714439038        1.31048350671623
C            3.26406294434196       -4.39979169345266        0.36572529728293
C            2.48524744399507       -3.80830932966144       -0.62968727616390
C            2.35008884186966       -2.43043343215256       -0.68098556651008
S            1.80211447229142       -5.04995953954690       -1.66373650310830
C            2.55639169748769       -6.35355712939500       -0.72748752626369
N            3.26739183197158       -5.78943132655676        0.26244642020084
B            4.07468464006604       -6.60443376160387        1.27150149391372
F            3.62048061726582       -6.34510480714667        2.55370050532885
F            5.42061747726500       -6.30638892816904        1.14110677637803
N            3.83428766356778       -8.06238355170703        0.92642099250950
C            3.05868228404151       -8.43968528908410       -0.13245926203976
C            3.06590047425784       -9.90312337679869       -0.13031435663979
C            2.49661224874192      -10.91112505768868       -0.88892929454372
C            2.74690074370390      -12.24378077558506       -0.53969954517983
C            3.54009504455015      -12.59260222830843        0.53670750969633
C            4.13837148254336      -11.59548181962612        1.33951960886443
C            4.96780695839439      -11.74542718996592        2.47551376654117
Br           5.40615490543968      -13.47225899814813        3.08947401236681
C            5.45852946471932      -10.63860138303268        3.14094828238277
C            5.16845675888886       -9.32801958871961        2.74048308639642
C            4.35929840720675       -9.14228336485236        1.63328431708398
C            3.86845756230586      -10.27822100892480        0.96100671224743
N            2.41082066750156       -7.65413402255519       -0.99283138465003
H            1.15102742735221        1.31756181803742        0.30067171159214
H            0.91180329894154       -0.14065908785948        1.26192234133971
H            0.72352687236550       -0.19582996591474       -0.48783483474106
H            3.23290198424422        1.49089099509522       -1.24396736886930
H            2.77836205762113       -0.02984520720672       -2.00287109393452
H            4.38092917768448        0.15396267196142       -1.29663254540753
H            3.43163936286699        1.69744496429948        1.23764871919332
H            4.64114384186896        0.42298217666966        1.23877353195127
H            3.22016824389681        0.30429061994033        2.28718426436028
H            4.26264910689649       -1.63608552926718        1.98133073155735
H            4.50323429182127       -4.07566957488564        2.07316099181866
H            1.74417544431455       -1.99728004334762       -1.45523442994961
H            1.87316020472315      -10.66127898277775       -1.72858150176844
H            2.30200857363219      -13.02541567828712       -1.13282037015706
H            3.71178490914114      -13.62559973956847        0.78056203678078
H            6.08629458432834      -10.80112966833269        4.00169150003611
H            5.55398464880207       -8.47515123933308        3.26940250651174
