79
 energy: -17.728980472445 gnorm: 0.000738192457 xtb: 6.5.0 (97a52f5)
C            2.31172557038115        0.71981313928342        1.01543749679128
C            1.66202699882571        0.69675116059036       -0.20310414906883
C            0.29680064692662        0.86917806943425       -0.26001221557382
C           -0.44357027796229        1.06864089560697        0.90185319394342
C           -1.90398675960732        1.24916274694254        0.84256432558095
N           -2.53817418253953        1.45036282072138        1.98709029333171
C           -3.84814772936033        1.60464581372704        1.87407848492629
C           -4.61204826809735        1.83219921301534        3.11222514401064
C           -5.99385259810186        1.99746385445203        3.07610677203803
C           -6.70816920128173        2.20839268088466        4.23442189178216
C           -6.05486241970810        2.25784184688992        5.45001044092669
C           -4.68422513112533        2.09605250530379        5.50300646311414
C           -3.96882805646259        1.88506776837476        4.34536605811409
N           -4.52724909959211        1.57002179860557        0.73870270435688
C           -3.79023740352546        1.35579024483083       -0.34055224931141
C           -4.48865859996220        1.29445789386534       -1.63275535254552
C           -5.86451980511267        1.50109084512432       -1.70848944907071
C           -6.51925802784810        1.44024121070799       -2.91388637114177
C           -5.82123020879381        1.16847884103296       -4.08785695508959
N           -6.50842885629455        1.09346496609764       -5.34530931418485
C           -6.11743775349853        1.70917458330255       -6.55446412542976
C           -5.03492075220697        2.53674563412982       -6.84819973014408
C           -4.89855224499584        3.02077649721103       -8.12689866577227
C           -5.82538376196152        2.69875364871188       -9.12094933760353
C           -6.90413585035905        1.89163977938192       -8.84662285057095
C           -7.05546743240683        1.39398860415489       -7.55301964107729
C           -8.06381186916519        0.55155069411235       -6.95268777646408
C           -9.19969686035195       -0.04557063081758       -7.48519471362955
C           -9.96795506270799       -0.82781486116320       -6.63502669133362
C           -9.60790622277315       -1.00259688380878       -5.27336269292325
C           -8.47128802208692       -0.40675959185125       -4.74134909202942
C           -7.70554067462163        0.37887384620691       -5.59010634161012
C          -10.61282433981985       -1.84837333522880       -4.67250289780592
C          -10.76340048159943       -2.34569426282946       -3.37856037540775
C          -11.84130600339549       -3.15369940435997       -3.10404192467083
C          -12.76874743985143       -3.47609874103645       -4.09758351696689
C          -12.63412726789043       -2.99101759374665       -5.37594581801219
C          -11.55172995058350       -2.16329913386977       -5.66984153082660
N          -11.16479057909205       -1.54234551458161       -6.87649893989965
C          -11.86745674812746       -1.60890846153618       -8.12808290588598
C          -11.19627169164574       -1.93823275819636       -9.30061254601133
C          -11.87160677808096       -1.99782592034020      -10.49907866985157
C          -13.22576992949669       -1.72968285995510      -10.54559188331147
C          -13.90424241902461       -1.40154328172419       -9.38833479116352
C          -13.23103607032005       -1.34192775908117       -8.18873852663662
C           -4.44575617412897        0.96348432292655       -4.01516557568837
C           -3.79171205292124        1.02590399595347       -2.80913224926857
N           -2.47629857508890        1.19073305616523       -0.34942670856347
C            0.22663599397295        1.09030559868157        2.12173604787315
C            1.59176188942452        0.91698219525952        2.17745794295507
H            3.37991525490195        0.58383400857857        1.05961700527063
H            2.22346210837580        0.54336245893953       -1.11021525450235
H           -0.21672778888818        0.85142326364973       -1.20520333303509
H           -6.49566382306223        1.95722706788497        2.12548774438406
H           -7.77773827965558        2.33412043838000        4.19243767863454
H           -6.61421519541401        2.42231139533369        6.35634538018930
H           -4.17385772606716        2.13417829429092        6.45134170026883
H           -2.90111769329273        1.75744368074285        4.37888306348004
H           -6.40671074672940        1.71224242922832       -0.80368281701210
H           -7.57879387309759        1.61850473779710       -2.96811395130024
H           -4.33235019614756        2.79347401231212       -6.07598647043063
H           -4.06523359976535        3.66050582098535       -8.36677585598052
H           -5.69416151168860        3.09189338641303      -10.11560166200958
H           -7.62527154427466        1.64324911426070       -9.60508280020313
H           -9.47502935172432        0.09640767764448       -8.51237051766661
H           -8.19297333250815       -0.55611818054591       -3.71600372466385
H          -10.04278234715613       -2.09534899051535       -2.62027265394921
H          -11.97241709034452       -3.54608784569073       -2.10906253255115
H          -13.60174757032854       -4.11588039703855       -3.85664224159196
H          -13.33953131806895       -3.24301429253345       -6.14708685335484
H          -10.14416285363977       -2.15845711132181       -9.25389316997090
H          -11.34245209208716       -2.25604130220380      -11.40159829654354
H          -13.75326901741535       -1.77590368775184      -11.48401457396869
H          -14.96047138953302       -1.19040777753243       -9.42456124441780
H          -13.74934196862997       -1.07365229498655       -7.28495833665070
H           -3.90534906938398        0.73522821667519       -4.91692494013441
H           -2.72978151270412        0.86264703398382       -2.75537772985601
H           -0.34138802444405        1.24401480813107        3.02237397211809
H            2.09815008691591        0.93470425716415        3.12866173026269
