79
 energy: -17.733937423115 gnorm: 0.000468288086 xtb: 6.5.0 (97a52f5)
C            1.27715741302579        2.96235200500440        1.01505015271358
C            0.68193519975236        3.16475241822904       -0.21461744754368
C           -0.58638827539725        2.68443882552946       -0.45475396115888
C           -1.28315707604396        1.99285684479969        0.53203677619166
C           -2.63187340433031        1.46132745962401        0.27042851879425
N           -3.23673584462457        0.82593659923781        1.26210133576148
C           -4.43471324446473        0.34803691768615        0.96382342416582
C           -5.17816420607886       -0.33559567233805        2.03590878119637
C           -6.45566524635640       -0.83818988533838        1.80556826390199
C           -7.15841344090692       -1.46163547884107        2.81267239613399
C           -6.59760128559720       -1.59384654766757        4.06780051293826
C           -5.33089229941003       -1.10096459640840        4.31252858071321
C           -4.62722400849271       -0.47713578773274        3.30628104616343
N           -5.02277757739369        0.44221722561951       -0.21791941764790
C           -4.33292030447178        1.11447582755512       -1.12663558987316
C           -4.95343588890877        1.28552628200464       -2.45143213891530
C           -5.98194480373400        0.44259375987078       -2.86762204052791
C           -6.57825163347390        0.61587439716082       -4.09240729926070
C           -6.18395934312858        1.65508469870482       -4.93068171112584
N           -6.83257833116038        1.85095514480567       -6.19889650094886
C           -6.17033174985750        1.72584237563399       -7.44036176962395
C           -4.81367337513409        1.61939796919450       -7.74478964730244
C           -4.43934611736097        1.47440767893824       -9.05831476051869
C           -5.39407842192088        1.42475358312035      -10.07791944924963
C           -6.73552833310290        1.51330064387740       -9.79428625395322
C           -7.13014027399628        1.66350114749921       -8.46310491797004
C           -8.42522856170799        1.74681798306490       -7.83907839735695
C           -9.71780522598320        1.65380292119488       -8.39311022510567
C          -10.80920870327505        1.72161238126355       -7.57353395546234
C          -10.63134896760677        1.92010739274374       -6.19052504481244
C           -9.35369269459578        2.03277153563018       -5.61538115708620
C           -9.54400144272933        2.31475742433720       -4.21241053610028
C           -8.66793628479053        2.63961569889072       -3.17275679785288
C           -9.17438097333655        2.88881245292148       -1.92194874240942
C          -10.54994992374086        2.83803625498706       -1.68118052429710
C          -11.43112405714902        2.54931637062300       -2.69275610880328
C          -10.92917811212724        2.29021050677352       -3.96831228289370
N          -11.60098174516997        2.04692198734408       -5.18023959712209
C          -13.02730177225379        1.95278068283906       -5.34902147988004
C          -13.76865967436795        1.05651668890551       -4.58779139876442
C          -15.13318315747821        0.96259207527293       -4.74961283160972
C          -15.77676265969047        1.76301584495366       -5.67299687056371
C          -15.05123820535437        2.65819061916405       -6.43454626700456
C          -13.68652349045863        2.75334940171433       -6.27459022176830
C           -8.21833008088058        1.89916859645103       -6.45647856713435
C           -5.14664970986680        2.48915488018754       -4.52495331591404
C           -4.53793423770485        2.30320031793587       -3.30797623557848
N           -3.13875935886364        1.65447752920537       -0.93696856439741
C           -0.66975712632716        1.79914609802007        1.76652805797845
C            0.59886302449423        2.27922101278793        2.00521485080419
H            2.27069201123233        3.33607189566270        1.20142855316058
H            1.21146568560561        3.69670914861940       -0.98798870735926
H           -1.05448446217345        2.83371954419330       -1.41178595532716
H           -6.88724773984666       -0.72693803107936        0.82634778291487
H           -8.14755106097723       -1.84462876640948        2.62177501427478
H           -7.14885083230188       -2.07967038981960        4.85622243008855
H           -4.89366471971221       -1.20231945443882        5.29236485691157
H           -3.64204212535621       -0.08607799016083        3.49024295026534
H           -6.30519395715033       -0.34497050768674       -2.20987384394286
H           -7.37348577312667       -0.03467087659887       -4.41178984614210
H           -4.08501894277417        1.64794864663880       -6.95478921289483
H           -3.39399649218338        1.39530259774385       -9.30764885929361
H           -5.07266647019623        1.31035798833069      -11.10006463017395
H           -7.47689432313504        1.46675813124676      -10.57218853068477
H           -9.82976181388136        1.51312557219715       -9.45349674116600
H          -11.80488844126291        1.63479586248746       -7.96916965281337
H           -7.61385251955189        2.70552052742347       -3.36238360351388
H           -8.50336175787175        3.13173218720693       -1.11460193072316
H          -10.92313233678906        3.03892978133588       -0.69041896374721
H          -12.49279341949301        2.53165104539986       -2.52373411408560
H          -13.25711980173508        0.43007695068778       -3.87803534808145
H          -15.69870528547066        0.26265714590035       -4.15649254593880
H          -16.84449002749946        1.68878554973779       -5.79924520891772
H          -15.55349272078394        3.28395382525674       -7.15400794749742
H          -13.11486510208610        3.45496137884678       -6.85653583429489
H           -4.83815782873131        3.28918758507040       -5.17488269784023
H           -3.73873821699711        2.95098966465082       -2.99349452250584
H           -1.20316725790748        1.26306260193170        2.53164331905917
H            1.06354074564342        2.11926789284136        2.96439312021109
