79
 energy: -16.323044315956 gnorm: 0.000661976118 xtb: 6.5.0 (97a52f5)
C            1.55452363751496        0.17740106734722        0.79717369675736
C            1.07317743187173        0.51039260426186       -0.45372576756498
C           -0.28216265395065        0.64610347259808       -0.65732027843256
C           -1.18100529907909        0.45050301507886        0.38737682258076
C           -2.63051512701188        0.59507912269542        0.17046552352707
N           -3.42495937997744        0.38600302260095        1.20802397715111
C           -4.71618787986340        0.53283685457375        0.95501888537953
C           -5.65013926752056        0.30784366606309        2.07156132754219
C           -7.02090334941281        0.47600311018343        1.90095215252223
C           -7.89159061749772        0.26202753634449        2.94634934072445
C           -7.40863431644127       -0.12366098835776        4.18126569797210
C           -6.05105058301717       -0.29468027261889        4.36754073453212
C           -5.17961436651398       -0.08065906452376        3.32278360534189
N           -5.23419322234482        0.86186823305015       -0.21788128963684
C           -4.34527451478249        1.04188496333878       -1.18267354848903
C           -4.85061726934779        1.40116290195538       -2.51612956067516
C           -6.21348120409287        1.57404427010136       -2.74715259751279
C           -6.67725708479120        1.90499414848388       -3.99696250723492
C           -5.79434306941817        2.08021805867929       -5.05850940450570
N           -6.29651616974675        2.41074615901576       -6.36221674338342
C           -5.71503596809760        3.26765732844057       -7.31757057400175
C           -4.54811766277021        4.03288097594337       -7.30956231227021
C           -4.25123300518487        4.79505702369316       -8.41283429534560
C           -5.09977030196074        4.81555362538726       -9.52292562487801
C           -6.26053362373904        4.08078145915282       -9.53899946736883
C           -6.57653780802166        3.29846099166536       -8.42400312346696
C           -7.71297490925997        2.46016741319804       -8.10810579031020
C           -8.79225059498424        2.20129962694697       -8.99319257354776
C           -9.99081093089179        1.55714424096247       -8.77844645479880
C          -10.67028799962764        1.23774397624533       -7.56894039566345
C          -11.64372467789198        0.26644316593381       -7.45414217744968
C          -12.10999665702382        0.31456578582643       -6.12446948198731
C          -13.08003086194170       -0.42800968708908       -5.48310922171896
C          -13.36676619935307       -0.16582168667615       -4.22800826269707
C          -12.73960401116503        0.82649590832372       -3.52844414825078
C          -11.76625698640676        1.59409948700510       -4.13747450212146
N          -11.44702463333169        1.33024423129851       -5.44579782959235
C          -10.60584153164435        1.89209055760485       -6.31072041672736
C           -9.91824629318123        3.07446733871483       -6.04548104821339
C           -9.95542336654702        4.23238584398729       -6.68309607820025
C          -10.81292100788564        4.73703366959957       -7.55288128521498
C          -12.08902655824060        4.41822053247499       -7.86999993897567
C          -12.84322559844871        3.53478837450800       -7.20518243312880
C           -9.28849262024186        1.73064889246990       -0.72216721651730
C           -7.48061499577117        1.94585205209303       -6.85839824196317
C           -4.43349706909553        1.89906612008424       -4.83308911109618
C           -3.97063817905934        1.56811526646162       -3.58322339053487
N           -3.03335258199330        0.92271084457635       -1.04644652287666
C           -0.67960603388358        0.11560597729903        1.64190460068776
C            0.67594664307168       -0.01973783969855        1.84433946473292
H            2.61522119795342        0.07151912747160        0.95600081776170
H            1.75853276109840        0.66434469423450       -1.27110759544477
H           -0.66487868619603        0.90536403299834       -1.62877984441458
H           -7.39153313085555        0.77959714190599        0.93786312823378
H           -8.95083992888559        0.39637687355623        2.80049729806863
H           -8.09059645226563       -0.29123882405324        4.99880390758284
H           -5.67316619969657       -0.59565157737597        5.33094830304814
H           -4.12081426695395       -0.21275808759127        3.46001201204542
H           -6.89997597688800        1.44602602209011       -1.92907587866822
H           -7.73030316391002        2.03705077836871       -4.17457260199783
H           -3.91157672758727        4.03756594761615       -6.44363817838486
H           -3.35296043694327        5.39029878954688       -8.42193745028106
H           -4.84284306585379        5.42306776315939      -10.37504473633302
H           -6.92380209779530        4.10640537330836      -10.38513051298961
H           -8.60372864215348        2.51278936846120      -10.00925376848607
H          -10.52333837842618        1.24902122032685       -9.66703350595386
H           -5.15494856802564       -1.39956224538332       -3.75378565149107
H          -11.60403124195608       -6.89533392873463       -0.68607822779906
H          -13.01408743798273        1.00444818090856       -2.50264865452430
H          -11.26742358294916        2.38419399951384       -3.60475637164026
H          -11.95543022678400       -1.72574250431872        0.66912080004706
H          -11.85077964753033        9.66530885248671       -0.48332308877458
H          -12.53640545783409        4.95773568086886       -8.69006239607157
H          -13.83898951796306        3.30198618952693       -7.44735392470312
H           -9.01478219151839        0.24303151950033       -5.69150005859264
H           -3.74934917912312        1.98999656158563       -5.65768463325382
H           -2.91809839571765        1.42626754965578       -3.41208918934712
H           -1.37074042384128       -0.03614792691047        2.45225332623627
H            1.05101938959290       -0.27927393710396        2.82079447061159
