101
 energy: -22.368512329572 gnorm: 0.000433360381 xtb: 6.5.0 (97a52f5)
C            1.80235845367485       -0.89228645377735        1.86240828551406
C            1.39332569091792       -0.66777042585942        0.56250427210470
C            0.05277187739571       -0.69106383985632        0.24761187848387
C           -0.90414519087233       -0.93962412887538        1.22781901778238
C           -2.33734505085007       -0.96675317885232        0.88846985822496
N           -3.19211386473035       -1.22499003380254        1.86597648301046
C           -4.46437074397387       -1.24014834689840        1.49853239032108
C           -5.46511913863456       -1.52380802472901        2.54178468142432
C           -6.82360467751408       -1.54766723691880        2.23838659930945
C           -7.75828166596183       -1.81068968872194        3.21531761619592
C           -7.35269114511465       -2.05546261517925        4.51271749908051
C           -6.00869133976057       -2.03609602633055        4.83026897192134
C           -5.07321098312852       -1.77282628020799        3.85424990737144
N           -4.91005747485662       -1.02300244066749        0.27087470966728
C           -3.96510095713064       -0.77363692660665       -0.62311774848268
C           -4.38861005734595       -0.51859679595099       -2.00733161398074
C           -3.45552415375017       -0.18933884654686       -2.98626794266007
C           -3.84675547217450        0.05972072043200       -4.27780225501211
C           -5.18704390798727       -0.02362811486707       -4.66084990319006
N           -5.60176405530330        0.31454114740011       -5.99248125739165
C           -4.68952179521229        0.91769766004627       -6.92362007362060
C           -3.48439574420614        0.30646403658108       -7.26510393082339
C           -2.59380834165685        0.92825967421701       -8.10879859487678
C           -2.89818599577821        2.16487201506680       -8.63939786338457
C           -4.10772068531171        2.76077475940723       -8.34562008361196
C           -5.02419630878706        2.14613273745839       -7.51125103320251
C           -6.40612480468448        2.77409515033895       -7.26290816275726
C           -7.42362659257850        1.68219228877756       -6.89047759634554
C           -8.77430563986961        1.86332119781764       -7.12798255822758
C           -9.68597773190414        0.86309156875689       -6.85766051756527
C           -9.25257576608002       -0.34531357380616       -6.35205317005808
C           -7.91610149311774       -0.53977124241101       -6.09215755583947
C           -6.99009693444007        0.47600659411809       -6.32136775540713
C           -6.29906561867761        3.76053969527009       -6.09423156065650
C           -5.90883560010194        3.27085303032035       -4.85723060587658
C           -5.79342652795642        4.08390285361880       -3.75367650351318
C           -6.07093999294819        5.42570728447748       -3.87267057938614
C           -6.45866562719619        5.93225755064548       -5.09350581714809
C           -6.57882766013196        5.11974057870520       -6.21284562776139
C           -7.00823608701962        5.76435882778038       -7.52896863086648
C           -8.33313368307697        6.51500823564273       -7.33829839634727
C           -9.57864919579487        6.03626337716334       -6.98943854640651
C          -10.63348722688221        6.92484121874612       -6.89156826653296
C          -10.44538560212860        8.27561051779015       -7.13864469952594
C           -9.20098654024959        8.76240489104657       -7.48576369508836
C           -8.13909810594990        7.87504311276809       -7.58570325473109
C           -6.72850396515286        8.10972258668828       -7.92615911700332
C           -6.06138551356882        9.28594862187141       -8.23677281567905
C           -4.70910107737383        9.23241427410821       -8.50950720932586
C           -4.02655372680803        8.02674523183025       -8.47258776914702
C           -4.68682520221445        6.85175901329703       -8.16433950779142
C           -6.03882250943768        6.89639909725713       -7.89508661241809
C           -7.13389705905213        4.78759444355776       -8.69719156057262
C           -7.53405653760606        5.28592004147594       -9.92920055886219
C           -7.67301779998519        4.46624544469131      -11.02709916645652
C           -7.41054246598129        3.12120320043751      -10.90702288214722
C           -7.01189727096288        2.61254993798736       -9.69083651934027
C           -6.86765144104246        3.42613447789460       -8.57477796114475
C           -6.11888009586991       -0.33169213136498       -3.66690595789045
C           -5.73038774683702       -0.57868559203002       -2.37336125134482
N           -2.66533045619880       -0.73173826430390       -0.37186974548733
C           -0.47541531393778       -1.16409028612849        2.53307232855988
C            0.86560145534528       -1.14027085777503        2.84668997355546
H            2.85154838172963       -0.87443358518853        2.10835073500337
H            2.12377733164406       -0.47484134838606       -0.20617173870957
H           -0.27354595188536       -0.51770023907184       -0.76273755034827
H           -7.13185009874660       -1.35581312256914        1.22570770721105
H           -8.80697708390798       -1.82525743399225        2.96703404534048
H           -8.08443985800772       -2.26138895159936        5.27676125063744
H           -5.69153776903755       -2.22704323578358        5.84247733273096
H           -4.02463347741100       -1.75587088415614        4.09420257662863
H           -2.41833200280340       -0.12168712622879       -2.70839706527564
H           -3.10848278914713        0.36257015795046       -4.99584905331996
H           -3.26652194210348       -0.67203535198511       -6.87338790385514
H           -1.66054128960573        0.44924781465509       -8.35607470146912
H           -2.20088879008240        2.65678063839714       -9.29760736874063
H           -4.36040806931051        3.70796772369366       -8.78833511858210
H           -9.10841731986388        2.79556727055425       -7.54832178165520
H          -10.73332087934545        1.02063484958797       -7.05683415169335
H           -9.96002070538128       -1.13562817742505       -6.16104981747684
H           -7.56771919565662       -1.48827537560194       -5.72160548388667
H           -5.69358712765823        2.22302406396580       -4.77602187494070
H           -5.48852596454960        3.67249346180531       -2.80535159690032
H           -5.98454965636581        6.07617220220082       -3.01766185116858
H           -6.67512568688585        6.98193634448607       -5.19260069618191
H           -9.71306817641723        4.98681932896485       -6.79637707483961
H          -11.61154838301103        6.56239378233288       -6.62066569733094
H          -11.27917851689680        8.95367371506604       -7.05818903575118
H           -9.04551949462791        9.80935950847580       -7.67775295374304
H           -6.59831777835933       10.21780074894295       -8.25946616772584
H           -4.17812500044006       10.13855244979581       -8.75114579406642
H           -2.97014799869229        8.00393254735729       -8.68435447315559
H           -4.16461217560626        5.91260258409244       -8.12400810497189
H           -7.73845309936883        6.33889355574217      -10.01845827915890
H           -7.98458067876696        4.87605104474049      -11.97397641575899
H           -7.51441148017148        2.46983099383193      -11.75938606019658
H           -6.80218797158875        1.56110706512566       -9.59263382581891
H           -7.16508403550342       -0.33981003263725       -3.90825622429607
H           -6.46145247655590       -0.81436165692117       -1.62005215640287
H           -1.21069303139965       -1.35765346432983        3.29415703702077
H            1.18441612742437       -1.31639760859792        3.86104929534936
