102
 energy: -22.113741458891 gnorm: 0.000566346115 xtb: 6.5.0 (97a52f5)
C            1.95190710429058        0.82326127819995        1.37189043235170
C            1.66548619692255        1.07997530499042        0.04577915450448
C            0.36426676263331        1.02415586287056       -0.40188299886473
C           -0.67442575162087        0.71031595469048        0.46939483376599
C           -2.06612915871495        0.64699268048491       -0.00992256618961
N           -3.00186812436521        0.35026906762265        0.87829995501448
C           -4.23173200056459        0.30599313358515        0.39132287755782
C           -5.32251265087331       -0.01998522411197        1.32587297777273
C           -6.64384209389312       -0.05143643414956        0.89018418681988
C           -7.66424210787474       -0.35985328941012        1.76190869672088
C           -7.38211188282294       -0.64254639554271        3.08374598008056
C           -6.07624908976493       -0.61471782738995        3.53175135229287
C           -5.05496062619748       -0.30571752021308        2.66111320273319
N           -4.56337593510661        0.52907090746580       -0.86929451572077
C           -3.54570733359518        0.81272714997369       -1.66686818291021
C           -3.85418113888928        1.05714145470520       -3.08224448011463
C           -2.84549793729390        1.33114812254268       -4.00192298049090
C           -3.14375546777502        1.53857800347631       -5.32616957806392
C           -4.46102602076217        1.48748883497511       -5.77509420679759
N           -4.75586158894913        1.66870939048270       -7.17975515564288
C           -4.47494783148610        2.90377399867955       -7.77351640518988
C           -4.07667536126032        4.02221146733990       -7.02525700991932
C           -3.78135636518092        5.20545024968299       -7.63634656332761
C           -3.89082668366926        5.33721551675994       -9.02422765690571
C           -4.28661334467121        4.28113269207830       -9.78665026794405
C           -4.58402981048253        3.03620995522979       -9.18537249307814
C           -4.97564532208338        1.92872293577369       -9.88619034761545
C           -5.28863214632498        0.70911697313239       -9.35118847261406
C           -5.71095096146905       -0.39864987176026      -10.12256112651176
C           -6.00502959463959       -1.58470295453129       -9.52224381885372
C           -5.88669034503033       -1.72406263711159       -8.13561896796065
C           -5.48020667567392       -0.67370986592675       -7.36539664599256
C           -5.17929224092321        0.57175284156857       -7.93946404401913
C          -10.45492388247541        3.12361401591149       -5.14983183643697
C          -11.24092177582719        2.97871265521246       -4.02012105360366
C          -11.28962847625581        3.97920336026589       -3.03149957691706
C          -10.61769089634322        5.20040352562806       -3.19935067041770
C           -9.94748415589263        5.48956963251399       -4.33749358810217
C           -9.91477663977014        4.50373745447498       -5.47160692943321
C           -8.64945573818837        4.28360548645599       -6.38799470341789
C           -7.55225987399580        5.31571419250623       -6.23043902678166
C           -7.32708774031504        6.20247031217096       -7.27214294472362
C           -6.39743407125736        7.21458222865087       -7.16541779018653
C           -5.67176143232907        7.35394545402295       -6.00270714409208
C           -5.88087325230394        6.47734842160828       -4.95944983430448
C           -6.81882222023790        5.45981443292006       -5.05339274251523
S           -6.98046482382050        4.44863745185479       -3.59703282719757
C           -8.08606015230341        3.20560832132765       -4.00568449515438
C           -8.16382806943069        2.17822744713021       -3.07884164107903
C           -8.72975792309698        0.90370230579239       -3.18309959120895
C           -9.07081314609916        0.15915664586869       -4.32659103915504
C           -8.85087864367119        0.45551857067341       -5.59554236302649
C           -8.92098342557293        3.24241823046065       -5.25305616427437
C           -8.89635828936584        3.74351341021017       -7.78316426312148
C           -8.01091122759259        2.85891917625462       -8.36003352248616
C           -8.27524236768652        2.33535959129740       -9.63386797608645
C           -9.42798166215244        2.70316458224747      -10.34014466038589
C          -10.30566179119605        3.59373757491027       -9.77266366808963
C          -10.01887635294413        4.08786608302838       -8.52037361926311
C           -5.46906832457870        1.22279098688648       -4.85657872629963
C           -5.16886787122104        1.00621059976507       -3.53518929119711
N           -2.27766658566198        0.88640304891269       -1.29387227448382
C           -0.36899818250197        0.45539741049963        1.80288530606376
C            0.93259554242484        0.51122036868610        2.24948105828914
H            2.97028878808488        0.86664097498324        1.72182205138151
H            2.46053898365431        1.32414135923102       -0.63955948263710
H            0.13279371261962        1.22232531692123       -1.43360801910502
H           -6.85454072424149        0.16922686421387       -0.14146004466391
H           -8.68333196684982       -0.38133228121062        1.41214374128798
H           -8.18073741292757       -0.88523685694712        3.76544039698727
H           -5.85578518431333       -0.83515485481264        4.56337398469145
H           -4.03489378918171       -0.28175056180812        3.00204285118339
H           -1.82684159856843        1.36980076213132       -3.65850819981548
H           -2.36179014855470        1.73498488944926       -6.03870607413702
H           -4.01815018387284        3.93708378539544       -5.95497341890358
H           -3.46775699615748        6.04965130077839       -7.04512006028621
H           -3.66459366568985        6.28277986923815       -9.48883232930380
H           -4.37757359395867        4.37570597601476      -10.85437848294420
H           -5.79342824825902       -0.28627301579813      -11.18938383870178
H           -6.32689284166925       -2.42393784319890      -10.11663681666375
H           -6.11833150002587       -2.66998366141146       -7.67436035188397
H           -5.38573933944203       -0.79368146790235       -6.30160035570636
H          -11.82364578022882        2.07943314744481       -3.88218839061833
H          -11.85586887096735        3.80600370794282       -2.13220811560619
H          -10.64509765853497        5.92486680046318       -2.40207550817625
H           -9.42933806808896        6.42434600713882       -4.45338502140200
H           -7.90418565343650        6.09683134471028       -8.17413924560060
H           -6.23865783759167        7.89269692702154       -7.98769899180687
H           -4.94265260412202        8.14201566374793       -5.91004070882968
H           -5.31807920547553        6.57900846085262       -4.04586780685233
H           -7.69874571555816        2.40778776111301       -2.12845045783529
H           -8.85644969811991        0.37918968952795       -2.24728136611843
H           -9.52484971332421       -0.80759287441524       -4.14325918751411
H           -8.52920865628558        1.04339878485086       -6.38249345708963
H           -7.10816055048947        2.58838122415560       -7.84016012156210
H           -7.57823114829296        1.64764846656927      -10.07728302750586
H           -9.61992454145272        2.29510322261882      -11.31824558104242
H          -11.20323523023500        3.90314291480521      -10.28651023488111
H           -6.48610767898415        1.17194990625399       -5.19969903245354
H           -5.94822600828689        0.78924783030470       -2.82702354991879
H           -1.16866144815754        0.21268302261522        2.48032306304585
H            1.15554075106001        0.31183271596509        3.28483362484328
