49
 energy: -10.051994872440 gnorm: 0.000851654022 xtb: 6.5.0 (97a52f5)
C            3.58978841969906        1.46072836715720       -0.89534316425036
C            4.51436837076500        0.64619121621977        0.03027704442717
C            5.86521365025039        0.40183181431415       -0.66838673732037
C            4.76831376430301        1.47263190273265        1.30718775334999
C            3.85832987930646       -0.70738494543405        0.34484271530037
C            3.60213194811260       -1.12666514047607        1.66086257557396
C            3.02000826900353       -2.33910730191479        1.93168576424082
C            2.67346886220694       -3.17630055227611        0.87310419429510
C            2.92199333408146       -2.77688088987800       -0.44301167443716
C            3.51419568629146       -1.55164320643194       -0.69806041754821
S            2.37717306546124       -4.02405511412070       -1.55352863283847
C            1.82474430352752       -5.05500784762930       -0.23930172489614
N            2.07428196873721       -4.43354588657714        0.92744624477537
B            1.72693323764457       -5.04547718557670        2.29721238992506
F            0.81999730229390       -4.22008802851056        2.94288749337442
F            2.89072605759126       -5.19323285733282        3.03484508442504
N            1.08797624482054       -6.42010908519520        2.08475315117044
C            0.86768949893976       -6.95400720480097        0.84667109009715
C            0.22902640570518       -8.25029286471302        1.06647363118795
C           -0.25043566239500       -9.28081603439379        0.27972757377259
C           -0.81687085613534      -10.39883393102723        0.90316041411905
C           -0.91402102097109      -10.51107717517862        2.27623049688107
C           -0.43516740702040       -9.48066717726859        3.11770143121197
C           -0.44375055098676       -9.40636317542631        4.53053056934699
C            0.07502029967263       -8.30260058975606        5.18269868225884
C            0.62790339361824       -7.21601795440673        4.49772605600091
C            0.65466641851480       -7.25343601823136        3.11638658295223
C            0.12301428923459       -8.38409862199511        2.46288785303556
C            1.22127477362225       -6.31456578694404       -0.35143894959238
C            0.98982698703038       -6.89297348802756       -1.58342113911528
N            0.79542915122939       -7.37697036735248       -2.62696408725394
H            4.01970965742983        2.43757012091045       -1.11241410374308
H            2.61793124541472        1.61602799423612       -0.42874252091923
H            3.42788036413831        0.95155415008799       -1.84375085716057
H            6.36481868884045        1.34318819735707       -0.89287707704024
H            5.73379208905441       -0.13774580712089       -1.60483451280914
H            6.52448770254164       -0.18734649967137       -0.03242962857590
H            5.22134635513844        2.43228365625648        1.06167451700199
H            5.44698046315492        0.95402297122259        1.98282328469875
H            3.83711276321594        1.67409980613110        1.83501819633143
H            3.86573409235865       -0.48715557909810        2.48365598115936
H            2.82228033374433       -2.66086568525940        2.93886417383597
H            3.70137633236490       -1.26939988422972       -1.71761750100363
H           -0.18476371372598       -9.20956062443939       -0.79082742682800
H           -1.19129012280628      -11.19897603365634        0.28635574277128
H           -1.35533599221495      -11.38451378492908        2.72258784843343
H           -0.86076568020758      -10.22435108848703        5.09076938169044
H            0.05473455800463       -8.27629166555791        6.25967531963772
H            1.02820077943898       -6.36279511326819        5.01534691804073
