82
 energy: -17.800244818665 gnorm: 0.000411783254 xtb: 6.5.0 (97a52f5)
C            2.15298615939141       -0.11796955101605       -0.35403169981428
C            1.44484193913307        0.50480360270758       -1.36305946183433
C            0.08287461988491        0.67321961110620       -1.24693702729134
C           -0.59614799214894        0.22199733256491       -0.11847441578012
C           -2.05206864343756        0.40673006414692        0.00686533104166
N           -2.63143390611145       -0.04507176961789        1.10832267687142
C           -3.94015675340860        0.14889107334171        1.16431689818264
C           -4.64598387876778       -0.34670126638552        2.35857499590259
C           -6.02880613285853       -0.22987793903658        2.46916328970385
C           -6.68764095507318       -0.70166152823932        3.58292561683081
C           -5.97705765840413       -1.29706418819603        4.60673567014501
C           -4.60452920943574       -1.41927709087625        4.51318154342057
C           -3.94475969144366       -0.94919250973907        3.39934138515349
N           -4.66660638508265        0.74612305692594        0.23281128727133
C           -3.98075335688049        1.15636189056417       -0.82341003020336
C           -4.72952710954419        1.81722680965565       -1.90170578197308
C           -6.09123037839300        2.07832401122307       -1.77124289022975
C           -6.79283841567292        2.67462532438779       -2.78901278080984
C           -6.16745930291477        3.03416641540114       -3.98407213197577
N           -6.92998466502432        3.53308422871904       -5.08749600503752
C           -6.36507096250400        3.52191933892034       -6.41825699588672
C           -5.27797250107891        4.32964113026149       -6.75373926780341
C           -4.72499396982305        4.27237376043621       -8.01381486095415
C           -5.24925371594144        3.41827729045903       -8.96543207032871
C           -6.33938381804019        2.62802082906426       -8.65386065249854
C           -6.89279193202008        2.68284407549565       -7.39683728536671
Si          -8.45634837118224        1.79849228874767       -6.95539178197094
C           -9.49510961495626        1.63707573746100       -8.49176823389169
C          -10.34665795938851        2.65750006448579       -8.85779232972452
C          -11.07016697654926        2.57171441566623      -10.03112558901026
C          -10.93584293026568        1.46300893385105      -10.84260229498840
C          -10.07568006382018        0.44495669060617      -10.48303806439791
C           -9.35372669901606        0.53578687970851       -9.30916783558856
C           -8.07872188664253        0.16351292605298       -6.15240745724733
C           -8.90289934080272       -0.92909913160370       -6.31649336310695
C           -8.61139412076012       -2.11896848914135       -5.67801514387308
C           -7.49640031719110       -2.21239488081061       -4.86861425442048
C           -6.67699987115609       -1.11545454663367       -4.69368089728076
C           -6.97344021881094        0.06957180222499       -5.33582339868984
C           -9.23813328153828        2.90722964570525       -5.69669487101791
C          -10.59723537883692        2.99980051691881       -5.51304775789125
C          -11.11206798152679        3.89328156770592       -4.59283795521401
C          -10.25792874265929        4.69317866229157       -3.85779276672711
C           -8.89545107726963        4.59466735318577       -4.03185580867614
C           -8.36032813009987        3.69000801218721       -4.94906844242773
C           -4.80292752662188        2.76941892368317       -4.10894383591826
C           -4.09882172589000        2.17940825086000       -3.08939985209919
N           -2.67514418942599        1.01113545002791       -0.99217924560265
C            0.13221244515285       -0.40425975235593        0.88909390105471
C            1.49423491841553       -0.57229493340852        0.77172391057518
H            3.21888041807607       -0.24895214454140       -0.44512842004194
H            1.95810902039646        0.85993237221766       -2.24171242541933
H           -0.47562257376099        1.15755720697462       -2.02850854683977
H           -6.57574329906423        0.23420197548540        1.66737644098248
H           -7.75887965634806       -0.60763367546403        3.65513721818792
H           -6.49320559856200       -1.66666476941557        5.47770384043322
H           -4.04929833145167       -1.88320938570992        5.31198544198778
H           -2.87605883246809       -1.04201507044077        3.31781551368626
H           -6.58764864604346        1.79373748111264       -0.86027747635828
H           -7.84978735504061        2.83659738825356       -2.68156642158192
H           -4.88381325631591        5.00540528846484       -6.01479107556858
H           -3.88190488593227        4.89723661130520       -8.25926210390836
H           -4.81640294864670        3.37584379195564       -9.95137727732918
H           -6.77308481200860        1.97521960541062       -9.39194649240539
H          -10.43344423624074        3.52408453163673       -8.22469478023378
H          -11.73544033200219        3.37096903879119      -10.31401648368533
H          -11.49857606771533        1.39436935702663      -11.75930935993366
H           -9.96537610991224       -0.41887375429865      -11.11794933414744
H           -8.66791309968288       -0.24557284220589       -9.02856564801967
H           -9.77842157705137       -0.84234730643343       -6.93698481320148
H           -9.25630938247324       -2.97242203891076       -5.80910785086817
H           -7.27003927488264       -3.13942739669824       -4.36750628037642
H           -5.81470971277601       -1.17906211908632       -4.05039064236340
H           -6.36981705495916        0.94452145818500       -5.17683922013407
H          -11.25216929451762        2.37184062100139       -6.09273029313228
H          -12.17785569872304        3.96975948475609       -4.45313683395136
H          -10.65890852317526        5.39349034928335       -3.14349999601195
H           -8.22444737794804        5.21215720294413       -3.46048862640665
H           -4.30223001002738        3.00602261627491       -5.02933810815625
H           -3.04836700941673        1.97519784584374       -3.19977196870475
H           -0.38753003675794       -0.75463155422748        1.76342469227988
H            2.04662321183252       -1.05822255928369        1.55933536248780
