68
 energy: -13.502383234511 gnorm: 0.000722355613 xtb: 6.5.0 (97a52f5)
C            3.84703606384876       -0.28634401289139        1.26114362363428
C            3.52410172710815        0.16863818840264       -0.00199146947214
C            2.21326433036290        0.15947103161652       -0.42409157385443
C            1.20101167525769       -0.30493303784467        0.41042928232276
C           -0.20087743885251       -0.31520574868216       -0.03991692381674
N           -1.10797137525060       -0.77089883759168        0.80796102100809
C           -2.34824246589845       -0.76346525559868        0.34743125870506
C           -3.40010164456139       -1.27220547194851        1.24312502250457
C           -4.68894689084013       -1.48969507754523        0.76985447203695
C           -5.67040198418720       -1.97895664394130        1.60242493297970
C           -5.38328435786364       -2.25247217688301        2.92455888668267
C           -4.10814605115869       -2.04130712186321        3.41037097188509
C           -3.12420401207952       -1.55833698659171        2.57669677397818
N           -2.71921703072988       -0.33489554382674       -0.84880543808454
C           -1.72910591912600        0.10332101682255       -1.61287649416912
C           -2.05793239876831        0.60088220791297       -2.91130224116407
C           -1.15675081929341        1.04317693699520       -3.81248426323318
C           -1.41815244103079        1.63015520586305       -5.03841849304936
C           -2.63714886935317        1.83542646085466       -5.66555303812657
C           -3.84884745535928        1.34216162700204       -5.32696449304196
C           -4.15578047141110        0.34312239654880       -4.49387234396921
N           -5.26399218838475        0.15936954206713       -3.94275291759232
C           -5.58367536511791       -0.89304643033787       -3.23150254673764
C           -4.81932509942647       -1.97316598126011       -3.00141106952719
C           -5.11303953258780       -3.07013068550541       -2.18098494606454
C           -6.25733119049419       -3.33882645115825       -1.45471230835645
C           -7.47835828993715       -2.71726763839610       -1.51948242484254
C           -8.11731556674149       -2.12333495663639       -2.56648068439010
C           -8.86614545768038       -1.01229361376308       -2.57943582289188
C           -8.92798557052457        0.03973747962835       -1.73533551170467
O           -8.07290353764616        0.16118123376456       -0.80007384345545
C           -7.90536842329277        1.12713022176787        0.09023986186305
C           -6.97093736361149        1.27173846776795        1.04695818903434
C           -6.81230429451609        2.32287016657088        1.95992976163478
C           -7.54610616484005        3.47111653444525        2.16218880095203
C           -8.67442993438931        3.92465464310965        1.54232693963381
C           -9.45357388145069        3.41797109536091        0.56128814065862
C          -10.55001878691149        3.97574185485024        0.02851863135227
C          -11.10847450711783        5.14120600259804        0.35404391546462
C          -12.19875765652201        5.61389369450101       -0.23623979522949
C          -11.11318057821580        2.37526160990812       -5.66074755810150
N           -0.45255629549062        0.13211060376955       -1.25941350890634
C            1.54332064152102       -0.76004740752452        1.68026748082160
C            2.85446592037328       -0.75073577946275        2.10132976677235
H            4.87300561142151       -0.27907503303265        1.59103802465042
H            4.29848503066058        0.53091522295778       -0.65813802529277
H            1.95336142409987        0.51181902805183       -1.40682812122123
H           -4.89793955126207       -1.28716914225811       -0.26586613880516
H           -6.66264170645703       -2.15363942385622        1.22053974864877
H           -6.15264741166282       -2.63349075211896        3.57593780968377
H           -3.88167269487565       -2.25769395538833        4.44154498653407
H           -2.12652426622445       -1.39628661305285        2.94537750405726
H           -0.12465676445245        0.97927968299985       -3.50744937162135
H           -0.55495534412633        2.01830500814849       -5.56049747159629
H           -2.62773139772423        2.46040326529773       -6.54620879693047
H           -7.18172511386236        4.94994910936973       -9.19440577457934
H           -3.84324081629999       -1.94825294696173       -3.46108237749903
H           -4.30035507217198       -3.76874174763094       -2.04452366747576
H           -6.18539544733951       -4.13001954886668       -0.72193195970840
H           -9.62511849172967       -7.88761581491696        1.39402908693166
H           -6.24656762322054        0.47598839112538        1.11001386035871
H           -5.96062886145011        2.21114153278840        2.61654744870572
H           -7.18328721898410        4.12950560741299        2.93774172835027
H           -2.54014850864819        7.68934591100379        0.32986534830979
H          -10.65632992320646        5.73198698886663        1.13327052102104
H          -11.53298388195815        2.17367908965776       -4.75017912116365
H            0.76426978522255       -1.12063776508584        2.32874646448748
H            3.10610918623632       -1.10597955669241        3.08719030237102
