89
 energy: -20.154845925346 gnorm: 0.000684669379 xtb: 6.5.0 (97a52f5)
C           -3.07348386172877        1.93177394082406        4.41973784231285
C           -2.09856605060818        1.46232032578000        3.56122435440680
C           -2.36178637588395        1.35176815946638        2.21422511039098
C           -3.60507473360255        1.71017409411883        1.70143226390865
C           -3.89215071991344        1.56795757033175        0.26519989702339
N           -5.09447535168230        1.92990214410245       -0.15501717634160
C           -5.30311283344908        1.74752766434927       -1.44959858816927
C           -6.62692260584378        2.10873288468018       -1.98149139723142
C           -6.88511508506965        2.03873628268242       -3.34720421037582
C           -8.12785080961229        2.35942322713025       -3.84555683814423
C           -9.13598715502682        2.75207146473793       -2.98731500950516
C           -8.89619348634769        2.82484083302499       -1.62896739249058
C           -7.65263576595509        2.50752233271814       -1.12978909866108
N           -4.42496337564150        1.24536762611902       -2.30337269805683
C           -3.27753453373833        0.88407457791274       -1.75788773863514
N           -2.31736770562244        0.23016881380458       -2.61324588400254
C           -1.00323857775090        0.68241107520608       -2.81954701915407
C           -0.29458950616352        1.72130281191487       -2.22009161246493
C            0.99166336899739        1.96496501336495       -2.63258745754851
C            1.58484995703405        1.19004860006241       -3.63463857539232
C            0.89802219103939        0.16222407478458       -4.23547830205061
C           -0.41082388457597       -0.09639826263597       -3.82637861368878
C           -1.38791824388853       -1.07620668607508       -4.23626492227469
C           -1.33702662130259       -2.09034663126685       -5.19043710052597
C           -2.43458143898107       -2.91523048701693       -5.35675275751871
N           -2.41003581794774       -3.97598001426921       -6.32746906025632
C           -1.37602392050932       -4.91748486670149       -6.50335114231107
C           -0.16899946330846       -5.08996968240548       -5.82495975641067
C            0.66325781012194       -6.11326885867465       -6.20601482181725
C            0.31519406653893       -6.97443378507651       -7.25111380230579
C           -0.87275671845179       -6.82464263460516       -7.92468196424581
C           -1.73041494291401       -5.78933770799297       -7.54780721715839
C           -3.02626761288387       -5.37663038840765       -8.03020248660079
C           -3.85388580836607       -5.86848832272189       -9.04158069416419
C           -5.05454732268973       -5.24232530874864       -9.27366000792852
C           -5.44418164319155       -4.13205933398941       -8.51840581434705
C           -4.64073792671936       -3.63704903861968       -7.52121487753501
C           -3.42127085990459       -4.26481328156208       -7.26594121811731
C           -3.57025631935096       -2.72954222450437       -4.55651426058211
C           -3.64913557581197       -1.73839854573308       -3.59853812086896
N           -4.79613050415274       -1.65517768391300       -2.73893147210966
C           -4.78992804080526       -1.73224461761992       -1.33162863550548
C           -3.74181324819509       -1.93230742871465       -0.43430114611908
C           -4.01495484900921       -1.92710360980805        0.91103562660486
C           -5.31723555841648       -1.73273343090840        1.38065519878844
C           -6.36380016760106       -1.54920271744256        0.50956765966714
C           -6.10172277674572       -1.55295788465248       -0.86135293167655
C           -6.95036029024578       -1.38068825986841       -2.01603445057170
C           -8.32240889017730       -1.16379271408165       -2.15231706306934
C           -8.84510964431292       -1.02606155919380       -3.41539350477865
C           -8.02438764229284       -1.09368384398917       -4.54546068854164
C           -6.67233365160821       -1.30047176328409       -4.42724927693302
C           -6.12745588857626       -1.45129331188820       -3.15320050692517
C           -2.54045412117459       -0.87521339587745       -3.45784170093822
N           -2.93461504797736        1.05990109873866       -0.49463249400956
C           -4.57711775814153        2.18068266378344        2.57936512268870
C           -4.31290762991541        2.29035972182581        3.92646205027543
H           -2.86761728176110        2.01710206249245        5.47407900747599
H           -1.13202049769019        1.18060475845033        3.94579795225176
H           -1.61081482749697        0.98116341745316        1.53880942031796
H           -6.09837633474961        1.71578005578720       -4.00605821389296
H           -8.31586928953716        2.29641592582982       -4.90488492718084
H          -10.10976084958438        2.99926989699063       -3.37739811243553
H           -9.68337201768196        3.12963987302721       -0.95901816411733
H           -7.45815171982565        2.55817443515003       -0.07292775725275
H           -0.76184148697807        2.30168992634451       -1.44542550425593
H            1.55404857366365        2.76355881830359       -2.17738866151130
H            2.59666930650769        1.40219917363960       -3.93860641196908
H            1.34822887132853       -0.43878617894939       -5.00572867356854
H           -0.46133303104233       -2.22200276617449       -5.79732673333242
H            0.08828655945768       -4.43263174754263       -5.01417523158288
H            1.59884755089759       -6.25716569877424       -5.69090523460173
H            0.98838763920896       -7.76846611856987       -7.52935630416730
H           -1.14981196952980       -7.48559907497597       -8.72678263874252
H           -3.54498349824238       -6.72083533808832       -9.62044199344953
H           -5.70534334738268       -5.60987562504829      -10.04994991098055
H           -6.38982642300378       -3.65781339889555       -8.72388725638865
H           -4.93042404696606       -2.77788654114580       -6.94442177564442
H           -4.39819854427972       -3.40310834739078       -4.67072086840296
H           -2.74036924489839       -2.05680992881154       -0.80533509377834
H           -3.21166756722102       -2.06165199947765        1.61657607675709
H           -5.50117014759709       -1.72295395790574        2.44231647889635
H           -7.36810523037527       -1.39609198779924        0.86302361287120
H           -8.94567742156096       -1.10357274780843       -1.27772361502381
H           -9.90191162371686       -0.85525940240258       -3.53757951473622
H           -8.45982773683321       -0.97352450066166       -5.52380467639618
H           -6.03092379487978       -1.33650598827491       -5.28905237918887
H           -5.54169750195409        2.45179833770958        2.18755452297855
H           -5.07422209627574        2.65501594848734        4.59645896321517
