69
 energy: -13.691444832949 gnorm: 0.000839240292 xtb: 6.5.0 (97a52f5)
C           -0.06689313499675        3.56915122307977        2.74214579148209
C            0.31621855507109        3.23808161314110        1.45744348744280
C           -0.45653134762662        2.38066562628544        0.70641969814286
C           -1.62879241394932        1.83949047195292        1.22587585145980
C           -2.45966120197152        0.92283428149261        0.42661649015736
N           -3.53963065159266        0.42402107225510        1.00854261505327
C           -4.24443586408169       -0.39906889390289        0.24902291576613
C           -5.47250599910114       -0.97450356266402        0.82069961645761
C           -6.30704117056607       -1.77305591796910        0.04449844531542
C           -7.45890093043293       -2.30985997306060        0.57431294558683
C           -7.79892418072984       -2.05559187794753        1.88838309837572
C           -6.98314503757919       -1.26178689830664        2.67077124195135
C           -5.83012792445621       -0.72523549909522        2.14236209186528
N           -3.93780558650770       -0.74507849493744       -0.99068084128691
C           -2.85132098976234       -0.16958065692726       -1.47148962769147
N           -2.50996570562013       -0.48033808498149       -2.83017780665201
C           -1.64842668174955        0.24878954352532       -3.66372323513338
C           -0.85933376167759        1.37343961075901       -3.43347914589373
C           -0.12119241579707        1.88601660794828       -4.47032668187253
C           -0.16060208098412        1.29617306300281       -5.73726194819770
C           -0.94016241540499        0.19011981416076       -5.98055909408198
C           -1.69576539103830       -0.34237600932645       -4.93312527079188
C           -2.62039107057019       -1.45533533283518       -4.84492534055188
C           -2.98885815654513       -2.29781937079800       -5.89875569539283
C           -3.86033700346378       -3.31265731911179       -5.81616985567235
C           -4.56494174307528       -3.72254192940989       -4.74847828322940
C           -5.59233621260867       -3.08643524531164       -4.19905494418949
N           -6.05659438836724       -1.92492556018005       -4.57644989942975
C           -7.04225234033581       -1.26601157717825       -4.06509485730104
C           -7.93560702919648       -1.60288126439978       -3.08608476399484
C           -8.90643239011580       -0.77093392631605       -2.57145836406725
C           -9.09400477571995        0.55192800955072       -2.85929134779852
C           -8.30046825056175        1.47515336961604       -3.47871119068426
C           -6.97149848921285        1.57115661020506       -3.43086990326944
C           -6.18969946964353        2.41662306236278       -4.06345251504629
C           -6.54054082378766        3.40142705691114       -4.93442114618561
C           -5.64027208645912        4.23648270270292       -5.55581289807907
C           -4.33379306811570        4.17646838476776       -5.38460672579706
C           -7.13290796136439       -4.65215423674948      -12.84819102003052
C           -8.34165065180492       -4.94169560104218      -12.62034385292267
C           -3.07804518399364       -1.49504751536066       -3.54807372183348
N           -2.07336750504946        0.67184545121713       -0.81514829736889
C           -1.99953823426945        2.18211251384004        2.52302819030674
C           -1.22558018192255        3.03877729487827        3.27377570004850
H            0.53857371192067        4.23942361501617        3.33009589606906
H            1.22136721193778        3.65021412970455        1.04261188416442
H           -0.15872765806667        2.11288949840772       -0.29122491149619
H           -6.04034499389491       -1.95369249226252       -0.98194478212841
H           -8.09622254786376       -2.92750300717552       -0.03680249407540
H           -8.70089301619028       -2.47535482274522        2.30271301453917
H           -7.24945195946508       -1.06152332090446        3.69569885571006
H           -5.18993133739332       -0.10476729522063        2.74455250498306
H           -0.84893052095042        1.81646415893689       -2.45606954278407
H            0.49477431338977        2.75504399293390       -4.30731870885965
H            0.42730313835569        1.71791783891314       -6.53575578725394
H           -0.97737581386425       -0.26256366911724       -6.95545005329794
H           -2.53103446614574       -2.11720494473984       -6.85567632781194
H            0.95766067934739       -1.18764236436583       -3.31424458388022
H           -3.45015423825589       -4.39864781813102       -3.46836211774735
H           -7.89041228827979       -2.61459715385303       -2.71678150542723
H           -9.61032184052130       -1.20319723768868       -1.87764334883174
H          -13.61342037447388       -2.45841951701771       -2.67294611267618
H          -14.33845200555165        0.46626074787879       -7.69528417201182
H           -7.59034739279393        3.52753868796987       -5.14488339012800
H           -6.01698335694972        4.99052376026223       -6.22842053015679
H           -6.77467551410103       -4.37836818312218      -13.79712579907203
H           -5.12749041910374       -5.42141182754777       -5.10067688531494
H           -2.90338013180295        1.76445849446189        2.93013721511637
H           -1.52444572233034        3.29555609936519        4.27680205450918
