49
 energy: -10.459537166958 gnorm: 0.000677203670 xtb: 6.5.0 (97a52f5)
C            1.39648975368502        0.13615795158550        1.02699728757361
C            0.98791560854654        1.39162361975722        0.62222416131421
C           -0.32393836166469        1.60875768623618        0.26755647211631
C           -1.25226149032180        0.56798188808349        0.29925291420754
C           -2.66297125860156        0.79148301349298       -0.06917453270954
N           -3.67126325215298        0.25167353551651        0.74862040339017
C           -4.88469854609548        0.54960535568966        0.39823261701435
C           -6.06419591916715        0.08102611803594        1.08295124422458
C           -5.90681764419296       -0.75711787845588        2.18677464840067
C           -7.00782115724115       -1.22062502802895        2.85287224807180
C           -8.24509873929354       -0.83091206961233        2.39639187468366
C           -8.31570110286662       -0.00079531216763        1.30185067864983
N           -7.27207539145128        0.46252686838631        0.63628965119570
Se          -4.94064910271087        1.69468146518811       -1.11547694163031
C           -3.07899621923281        1.50274907533312       -1.18246208643122
N           -2.36694381646002        1.92784817556347       -2.30298351102417
C           -3.09422060762406        2.57985588741052       -3.36426173198245
C           -2.89527753086353        2.19487864809996       -4.68787372401454
C           -3.64923238674342        2.74063145587023       -5.70242428957388
C           -4.61966175849980        3.68051044264277       -5.41642841158904
C           -4.82474196924002        4.08277783043112       -4.11209814328576
C           -4.06369205894651        3.54638959441683       -3.09876690151060
C           -1.02190178096635        1.49100814612774       -2.59761574814624
C           -0.03106975704030        2.41886294001390       -2.90296953500472
C            1.24697545364059        2.00339545143512       -3.20210240828217
C            1.55296942004643        0.65634348122173       -3.21197707608727
C            0.57383094296292       -0.27612146019740       -2.93050284349571
C           -0.70503644945969        0.13624400802422       -2.63201703594969
C           -0.82764414549538       -0.68703610224379        0.73187471676644
C            0.48572763039036       -0.90059004815044        1.08516938408614
H            2.42489684008351       -0.03337370817718        1.30090558149125
H            1.69726142980228        2.20192097052741        0.58080632607488
H           -0.64847473506926        2.58569226737050       -0.04647427427492
H           -4.91494035989199       -1.03074102791303        2.50139713945492
H           -6.90908307864105       -1.87042679455023        3.70691711730174
H           -9.14232520237438       -1.16997055724772        2.88776266434607
H           -9.28531618521813        0.30773011534352        0.94150828388867
H           -2.15341953376217        1.44669812193476       -4.90493807459634
H           -3.48625988615919        2.42870120854884       -6.72102731201998
H           -5.21259934050309        4.10277241852981       -6.21106660355528
H           -5.57534073709887        4.82286651783573       -3.88778785682106
H           -4.20189018042638        3.88051315121399       -2.08429526600849
H           -0.28004102004109        3.46564957497973       -2.89361402238398
H            2.00996293622849        2.73051947352307       -3.42679927732045
H            2.55501059550612        0.33267522606631       -3.44132775780208
H            0.81138066737829       -1.32728406899756       -2.94110184664768
H           -1.47541611556297       -0.58225699668957       -2.41279643235068
H           -1.54323286584710       -1.48956179601324        0.77738339794056
H            0.80368840865641       -1.87859883599037        1.40744483230635
