36
 energy: -7.691275348646 gnorm: 0.000908003388 xtb: 6.5.0 (97a52f5)
C            1.31501107679596       -0.36496156882535        0.37629870581211
C            0.94605897861774        0.85412877557759       -0.15663679407200
C           -0.38397237878470        1.14152261212492       -0.36648462267208
C           -1.37223706381210        0.20947963341091       -0.05295653069415
C           -2.79984271946952        0.50594464561925       -0.25069107634432
N           -3.76684025198670        0.09966542172767        0.59936569838740
C           -4.90690246210829        0.61071303952559        0.14278642245004
C           -6.20222335344424        0.42883563461488        0.76072957941521
C           -6.44840778996644       -0.28527208208598        1.89569816833578
C           -7.81825251001330       -0.29151716292474        2.27621729123034
C           -8.61205638416333        0.40981399473139        1.43734656784117
S           -7.68935858815501        1.10278739784245        0.14763960132364
N           -4.70323293778677        1.35034106877686       -1.00556753200476
C           -3.36973491652334        1.28698326823490       -1.28510753715745
C           -2.72808367706985        1.87240211652658       -2.46561929947749
C           -3.15780123856682        3.10241803348089       -2.96033613088534
C           -2.56959733972087        3.65642307512864       -4.07561795207339
C           -1.54769180900438        2.99059614458262       -4.72336046093905
C           -1.11771436000961        1.76496233492456       -4.25458256807955
C           -1.70295592573027        1.20841290500005       -3.13961379488750
C           -0.98293831446970       -1.00923460494561        0.49684418117125
C            0.34829922509156       -1.29475361832613        0.70458764935664
H            2.35638248457838       -0.58890674232047        0.54001092002471
H            1.69986565653786        1.58255468212691       -0.40687536416111
H           -0.67425559323504        2.09613825736539       -0.76938386734073
H           -5.67195231160669       -0.79161989505668        2.44670988144513
H           -8.18519432575950       -0.80867675647321        3.15068242144581
H           -9.67418789130906        0.52869650468856        1.53953913976347
H           -5.42655943108500        1.80799484353358       -1.55901444540420
H           -3.95136152785415        3.62040225588631       -2.45053359993700
H           -2.90717313459794        4.61144705476995       -4.44357068065024
H           -1.08725324326236        3.42561078547831       -5.59530915211553
H           -0.32347909368000        1.24306262384318       -4.76288870634355
H           -1.37580738718002        0.24872773142820       -2.77871891668556
H           -1.74155496655753       -1.72725857776832        0.75546211676358
H            0.63572550529318       -2.24421383222126        1.12569068715729
