54
 energy: -11.771596990843 gnorm: 0.000227205676 xtb: 6.5.0 (97a52f5)
C            1.23018528744758        0.74952056358004        0.94436269674250
C            0.71158028461998        1.75148522673167        0.14859874468955
C           -0.62024716074120        1.73688840205527       -0.20048193711743
C           -1.45673285883574        0.71146773287155        0.23559424393588
C           -2.88294950926564        0.67139593358589       -0.13081049219039
N           -3.86836871838386        0.41268749487677        0.74255850002940
C           -4.99746705302615        0.48192973674344        0.04993573190541
C           -6.32305121252481        0.25427269788838        0.63474764234442
N           -6.56939659739730        0.30385690789662        1.93713043886875
C           -7.87774240568667        0.03930423613237        2.07573776617969
C           -8.56317598736424       -0.03802029554794        3.37764072489930
C           -9.42528394150053       -1.08879933289057        3.68429282131690
C          -10.05704794438854       -1.14377792040500        4.90639538936723
C           -9.83498382986664       -0.15676535447086        5.84582513868612
C           -8.97252917715135        0.88330098198130        5.56254268619694
C           -8.33836083712446        0.94051975054065        4.34171370985618
C           -8.44243336165524       -0.17375367385100        0.79354260738961
C           -9.83245849811587       -0.48634081540880        0.44977089799776
C          -10.09865219614764       -1.24174757502510       -0.68773692324110
C          -11.39320241550317       -1.55324763588071       -1.03851592878692
C          -12.44554258480690       -1.10712971341582       -0.26411115839524
C          -12.19934069772970       -0.34162294198606        0.85827358134948
C          -10.90583042199259       -0.02946490753723        1.21121418863083
O           -7.43390114613438       -0.03430973835719       -0.11102981588849
O           -4.79943561248063        0.78219674476004       -1.27068976773079
C           -3.44984084076498        0.90238942670717       -1.40902076673894
C           -2.76598097025826        1.20743549381214       -2.66912569983925
C           -3.41488661556949        1.98059347375716       -3.62655676470436
C           -2.80128166567446        2.28130909630538       -4.82199751620469
C           -1.53198304236595        1.80667929249463       -5.08615229971998
C           -0.88112524170394        1.02355350947104       -4.15374856405939
C           -1.49254948336194        0.72191235686721       -2.95781992168831
C           -0.92162336691515       -0.28184252566429        1.05077630027967
C            0.41077423581973       -0.26486927057181        1.39744613141986
H            2.27348204930268        0.76058313453316        1.21423937580897
H            1.35042300622618        2.54607225243233       -0.20050307919256
H           -1.02939248932924        2.51994484060291       -0.81520443738671
H           -9.59023622082863       -1.86025772557085        2.95209309852845
H          -10.72596869528758       -1.95859820828907        5.12993031869006
H          -10.33224576586824       -0.19961777588909        6.80098723711615
H           -8.79604488285178        1.65184284639987        6.29716456511901
H           -7.66411523651182        1.74788750132551        4.11413171548894
H           -9.27198250394513       -1.58230055296208       -1.28744833507675
H          -11.58480087582358       -2.14635610504770       -1.91768058595330
H          -13.45846435985975       -1.35334745496587       -0.53760703744892
H          -13.02104971668952        0.01230205800169        1.45904575875119
H          -10.71396466155365        0.57844770398627        2.07774901507619
H           -4.40621988837047        2.34264000204807       -3.41397903983389
H           -3.31221570640847        2.88786578789019       -5.55167801595775
H           -1.05121430911652        2.04417606380059       -6.02099107637493
H            0.10685568797867        0.64716526619145       -4.36261889626150
H           -0.99215847218039        0.09926329848260       -2.23729411429717
H           -1.56662524719423       -1.06944180770650        1.40005240943506
H            0.81433387487661       -1.04501848330717        2.02192873800561
