100
 energy: -21.747346309697 gnorm: 0.000539228430 xtb: 6.5.0 (97a52f5)
C            1.37700750282623        0.02329837610370       -0.03231084348428
C            0.75839483856681        0.95386377927065       -0.84370726243238
C           -0.60575011757835        0.91140840784475       -1.02659884351480
C           -1.37866673457722       -0.07022200358298       -0.40960225815993
C           -2.84761224298469       -0.08006621560883       -0.59778103554628
N           -3.46366806021026        1.08125463227611       -0.52918602169743
C           -4.80775233836847        1.05144018733284       -0.62287299172968
C           -5.53212605594802        2.28396933176896       -0.56502485316944
C           -4.83243810258444        3.57920502380066       -0.49872927825113
C           -5.37778389476492        4.66278739097905        0.19822269450051
C           -4.73403079408585        5.87432723178327        0.24110295863620
C           -3.51610473969857        6.06401071909797       -0.41192132370002
N           -2.84459288720620        7.32563063410878       -0.36643803033717
C           -2.96972565429339        8.17378324366689        0.78662514631942
C           -3.06588614940276        9.55609927639337        0.64408638389750
C           -3.17747887484050       10.37055621356869        1.74860178630323
C           -3.19324358371250        9.82069959330115        3.01582332121375
C           -3.09605861892435        8.45178621495482        3.17426100278938
C           -2.98448800397393        7.63521227719735        2.07128001210524
C           -2.02442261347114        7.75039102887544       -1.46711914462278
C           -0.82423019173040        8.42036796642969       -1.24119581957971
C           -0.03781592431874        8.82841964076503       -2.29509867154533
C           -0.43526135757920        8.57678616250754       -3.59406984464446
C           -1.62444095969408        7.91632716554718       -3.83507321135653
C           -2.41256359605802        7.50729440098108       -2.78283615717310
C           -2.96882703862556        4.98733970857137       -1.10874080138470
C           -3.61186404933621        3.77673083239909       -1.14946718855391
C           -6.91579562702058        2.24477011979532       -0.58135911159105
C           -7.60477218439891        1.05145927585127       -0.65765878599674
C           -6.94678019367405       -0.16480798282802       -0.73063850358851
C           -7.72194082815320       -1.41602891731356       -0.80385128035805
C           -8.97074002075022       -1.45721407176101       -1.43353777677962
C           -9.70578613827139       -2.61550834828475       -1.47662478037814
C           -9.23161553852893       -3.78973606928172       -0.89198552679348
N          -10.00055610749986       -4.99470505882815       -0.93478923983019
C          -10.87142829030012       -5.25804871973680       -2.04708295962917
C          -12.11817896925859       -5.84723127850578       -1.84999296617155
C          -12.95244594496574       -6.10015123423175       -2.91568758089119
C          -12.55727627185905       -5.77157253733262       -4.19797108844451
C          -11.32255452209909       -5.18970408883545       -4.41062064119047
C          -10.48652312955836       -4.93583741263562       -3.34655779353393
C           -9.91269515327296       -5.95111330721100        0.13376394203263
C           -9.94047628860012       -7.31806198309859       -0.13278892352550
C           -9.86180680005644       -8.23570880447344        0.89066813017589
C           -9.75558416961407       -7.80636698929746        2.19939951094264
C           -9.72952762489836       -6.45418227267727        2.48085049272718
C           -9.80802489487199       -5.53463789471978        1.45908718923654
C           -7.98603167545289       -3.75569522630639       -0.26623972999018
C           -7.25163531631983       -2.59800109472788       -0.22567746236132
C           -5.51570499343726       -0.17360163473652       -0.72380518548614
N           -4.86921355418298       -1.34830249161296       -0.85778074026030
C           -3.55397204313586       -1.29812194304414       -0.82757326758913
C           -2.83087834002558       -2.56698101020257       -1.07423591587232
C           -1.75477016994124       -2.63565548918065       -1.95943896785148
C           -1.11490615943660       -3.83142382160522       -2.19742186580871
C           -1.54286674839088       -4.98365833087951       -1.56765377941215
C           -2.61782801783890       -4.93768827019115       -0.70192960464292
C           -3.25865256461014       -3.74283346960407       -0.46077201564236
C           -0.73883362251799       -0.99141747344801        0.42016640366343
C            0.62537944141592       -0.94679929632584        0.60106168595071
H            2.44476874096681        0.05741120647675        0.11041794607781
H            1.34340071631677        1.71606259616265       -1.33238304221170
H           -1.09329997154391        1.63902286045422       -1.65164195689641
H           -6.30805718550631        4.53450709118486        0.72356502927517
H           -5.17023871721214        6.70080934419930        0.77426009652323
H           -3.05812722534560        9.97765801252957       -0.34587583406866
H           -3.25293635072564       11.43852672740324        1.62429197615533
H           -3.28032791876231       10.45903090523682        3.87989441207331
H           -3.10560325493322        8.02243737946729        4.16284263474648
H           -2.89569504437566        6.56935443410249        2.18917388993215
H           -0.51653778630082        8.60678332784496       -0.22709942572185
H            0.88978600950469        9.34382422025124       -2.10634408066853
H            0.18124419786857        8.89617128159597       -4.41840540235291
H           -1.93621487771587        7.72165025804061       -4.84833227174733
H           -3.34492484895925        7.00195284954023       -2.96484581975300
H           -2.02297067068912        5.11575931729829       -1.60507417887561
H           -3.17724277790580        2.95620001089532       -1.69119307119957
H           -7.46511764067274        3.16965842527349       -0.55359745636017
H           -8.68060206692487        1.06374427714439       -0.64184738492170
H           -9.35005025870023       -0.56877664205816       -1.90739599702025
H          -10.66898381255577       -2.62796110311355       -1.95583865804631
H          -12.42319002587281       -6.09490878617190       -0.84834944101909
H          -13.91566119527224       -6.55412928533579       -2.74904645866981
H          -13.21109471481088       -5.96970678424345       -5.03155327379354
H          -11.01253872969871       -4.93529735193586       -5.41104307073465
H           -9.51904621173441       -4.49320764162022       -3.50729786167278
H          -10.01752339534122       -7.64650786704345       -1.15453041756239
H           -9.88261778463785       -9.29052764741859        0.67025237101475
H           -9.69430503296560       -8.52547219575620        2.99988135724169
H           -9.64938812927429       -6.11846099468116        3.50192094718317
H           -9.79970891152400       -4.48035262572711        1.67381163682549
H           -7.60023875288560       -4.65869185135773        0.17334008978342
H           -6.29179762357228       -2.58970716605318        0.25768164921869
H           -1.43002588916334       -1.73852818176721       -2.45765700919049
H           -0.27955454104660       -3.86787991848228       -2.87762049403097
H           -1.04161398910949       -5.91924005834973       -1.75546628789580
H           -2.95801295770846       -5.83828975377118       -0.21693690606841
H           -4.10063710403159       -3.70287526397798        0.20801716849630
H           -1.32699841249320       -1.74107953486064        0.92063347315522
H            1.10686684939640       -1.66870796474573        1.24043953675635
