82
 energy: -18.485499270767 gnorm: 0.000428281757 xtb: 6.5.0 (97a52f5)
C            1.57223138998460       -0.62210661814804        1.52423163273450
C            1.03856661508516        0.65078445035137        1.49044729937516
C           -0.29910975139761        0.83115813099906        1.22063103401085
C           -1.13442590366709       -0.25773394930263        0.97614327415285
C           -2.56365626465778       -0.10454025887082        0.69588883793666
N           -3.42540427717035       -1.10432057559053        0.80825189798907
C           -4.63354325438247       -0.60704598757536        0.45890416162149
C           -5.90319494231965       -1.28873953619232        0.41221312310612
C           -6.00694601153586       -2.63324499824959        0.77564878392377
C           -7.21544440593328       -3.27587267034168        0.73341833976706
C           -8.34883625735573       -2.58733702245498        0.32627255809034
C           -8.26798065572263       -1.26566085655084       -0.03598476156008
C           -7.04869678047546       -0.57419328717049       -0.00631029596147
C           -6.93310943773739        0.83706300616831       -0.39182681769037
C           -8.03709230309543        1.58212408521617       -0.82923660668819
C           -7.91206946236876        2.89919396249850       -1.19329923573904
C           -6.67732785601414        3.52825403452745       -1.13649876270043
C           -5.57718625245948        2.83272765015837       -0.71362903696985
C           -5.67740042532731        1.49016048659250       -0.33476123035880
C           -4.53095418040000        0.74072716940813        0.10714761920590
N           -3.19647812054557        1.07575214511648        0.26040229100198
C           -2.56348332726407        2.33608213931351       -0.04752482947939
C           -2.59401014962946        3.38593042309456        0.86373298085129
C           -1.89448825255136        4.54164774553211        0.61835746335968
C           -1.13943708343181        4.69093017544491       -0.54520802538811
C           -0.32102599780002        5.87096088310863       -0.81442240207311
N            0.30009095882846        6.05210774293477       -1.97167916467080
C            1.01175878874056        7.19466832806111       -1.84979430075656
C            1.88984923520398        7.80959120493970       -2.81410181436879
C            2.06092219347538        7.25179955196235       -4.08287631880157
C            2.90389179599786        7.83314740501127       -4.99214891221203
C            3.59638565313341        8.98609126443107       -4.65204469018736
C            3.44186974335910        9.55014085636918       -3.41010047921588
C            2.58721422156961        8.98478958910647       -2.45323775794323
C            2.40774763283013        9.56351419171117       -1.11681027509811
C            3.08216993198782       10.72399074473548       -0.71208577698017
C            2.91075010906219       11.25000331660830        0.54350465440817
C            2.05722713780634       10.63801723749041        1.44905475324831
C            1.38147477168583        9.50399731864402        1.08875763632574
C            1.53671227024029        8.94720910499355       -0.18500636773333
C            0.84118919835906        7.74988560500375       -0.57984241235052
N           -0.02476576532902        6.90561783724173        0.09384183217415
C           -0.45273867965856        7.04088226309760        1.46665478412645
C           -1.55030725013266        7.82956165724892        1.78673574155073
C           -1.95667190664668        7.95828535434467        3.09633961468067
C           -1.27293053149432        7.30129600184202        4.10035637749063
C           -0.17971381658968        6.51560185855235        3.79238148494033
C            0.22982945527267        6.38654037003701        2.48369726474765
C           -1.14510581754972        3.64615710722412       -1.46895203848532
C           -1.84282113337445        2.48872848623800       -1.22587297430989
C           -0.57825058828275       -1.53447571662633        1.02246640831278
C            0.76058270571143       -1.71450209845996        1.29068727531638
H            2.61992822288474       -0.76272539001080        1.73436645585785
H            1.66974978962517        1.50473083761220        1.67534009624891
H           -0.70858893744518        1.82326878545089        1.20440190311107
H           -5.12009838915515       -3.15446042129611        1.09083604021012
H           -7.28693564071813       -4.31345523858238        1.01607856773637
H           -9.29860641694256       -3.09600980030538        0.29463178155598
H           -9.16253869056442       -0.75772215561024       -0.34634327150683
H           -9.00492473219014        1.11871590899008       -0.88547352070460
H           -8.77680888321238        3.44927297279547       -1.52723316270477
H           -6.58564495700895        4.56250013383061       -1.42555033074097
H           -4.61969275670635        3.31707278790954       -0.67077939741897
H           -3.15495729160671        3.26673763955319        1.77435753548539
H           -1.92023260097263        5.33800728661240        1.33688387259421
H            1.51917492874099        6.35619692362245       -4.33197246077771
H            3.03073440313153        7.39620345070136       -5.96915852289068
H            4.26132882228395        9.43957439960530       -5.36897892286304
H            3.99273836003984       10.44193495171377       -3.17386545887072
H            3.75062912224070       11.21761320790999       -1.39331166190417
H            3.44236504034987       12.14284792672509        0.82999030834646
H            1.92798920946734       11.05511020795001        2.43445896857543
H            0.72169958844899        9.02860886530588        1.78979147484083
H           -2.07391687960703        8.33722788605033        0.99547091481622
H           -2.80859901233208        8.57280382042400        3.33743021804963
H           -1.59266118546439        7.40162504076000        5.12469890798453
H            0.35263905031860        6.00190113547422        4.57607409549499
H            1.07883374274602        5.77599253739378        2.23022385226301
H           -0.57078147807725        3.75367348949267       -2.37220352921460
H           -1.82038349036335        1.67515900503113       -1.92966103464041
H           -1.21554181731728       -2.38231224109150        0.84178551922633
H            1.17489591332241       -2.70905126391337        1.31879692508458
