82
 energy: -16.800182466015 gnorm: 0.000985427146 xtb: 6.5.0 (97a52f5)
C            1.20377131292357        2.92208471180145       -0.93717312725041
C            0.10665668709350        3.50616378784029       -1.53151501171521
C           -1.14883738729660        2.96680248733264       -1.36563128632616
C           -1.33570583001707        1.82876415526116       -0.58426505058788
C           -2.64000564879957        1.20632381233206       -0.36065220772950
N           -2.76987471022223        0.08192982362297        0.32820060761748
C           -4.09080961408012       -0.20310349096562        0.35488362843363
C           -4.75180124082719       -1.32720597636581        0.96988502689389
C           -4.01969107272128       -2.30509468106276        1.64687184667876
C           -4.65154751786883       -3.37343130168828        2.22552806511120
C           -6.03144048558452       -3.48779609215121        2.14034291768951
C           -6.76921968440065       -2.53711669711017        1.47988893067637
C           -6.15812914959576       -1.42992085767510        0.87466469750794
C           -6.92231386782479       -0.39903115822742        0.16330986878214
C           -8.31887342998129       -0.45311226396526        0.05255954824521
C           -9.02253052660812        0.52052263138759       -0.61024774204526
C           -8.35951297910017        1.59080278542229       -1.19117786409869
C           -6.99647068886047        1.67599265370644       -1.10407518382602
C           -6.25377868980216        0.69677470960276       -0.43602312924907
C           -4.81928600248334        0.77077431126219       -0.33023187593866
N           -3.88935989842297        1.68390448350358       -0.80067477026120
C           -4.17250766837570        2.85941694490061       -1.59430202476780
C           -4.47429800587840        4.04551198926807       -0.91963212094410
C           -4.73294827528650        5.29754494568499       -1.45061911997129
C           -4.46689264334145        5.74545159331029       -2.70861696538505
C           -3.56333981740984        5.28882833974780       -3.63794864203236
C           -2.33744445652702        4.99197856179717       -3.40796623757295
N           -1.77716024608353        4.57114906230628       -4.43020135035657
C           -0.50864116411044        4.14820285068911       -4.52569818289113
C            0.10038032412944        3.41053737482126       -5.46991642054729
C           -0.42150832115908        2.93824201657971       -6.60844527998494
C            0.21359718791691        2.16380247539828       -7.58471249584617
C            1.49508043657866        1.64899772956496       -7.65203979296519
C            2.52754167802997        1.71347404214316       -6.76705317123916
C            2.66981567426476        2.27689911049717       -5.53154969369449
C            3.74576214987689        2.20655803425174       -4.74150979481811
C            4.87704706674035        1.53579883432530       -5.00283130697506
C            6.04133335012484        1.44083501805520       -4.23091461649518
C            6.38087298560868        1.97735958682378       -3.00410465540443
C            5.65996692657879        2.74480638216000       -2.13932167418729
C            4.37705837701341        3.17472984757558       -2.15414325403287
C            3.82344114245944        3.98018640815518       -1.28407357237077
N            4.36236336634653        4.58846080736328       -0.31351897800675
C            3.84986519007770        5.65329268161743        0.30450161487574
C            2.66586410377583        6.25998939894469       -0.07538394444690
C            2.05318114793862        7.36824541195078        0.49373144171844
C            2.47492852460067        8.12570916604481        1.57753930023387
C            3.58364443842446        7.91410901426099        2.29207053833511
C            5.74356581025088        3.80969785905506        4.60298066688937
C           -4.24342273204925        2.71874215969158       -2.93242246642860
C           -0.21343585020624        1.25479025107360        0.01129420085375
C            1.04140835186592        1.79297652446939       -0.16378615373826
H            2.18999897062179        3.33987701729960       -1.08722590561839
H            0.23347822096279        4.38394290717073       -2.14233978751221
H           -1.97909038009050        3.42472927878464       -1.87113462172567
H           -2.95005575800278       -2.20396308740730        1.70462150980622
H           -4.07924389322569       -4.12417436965568        2.74555072677744
H           -6.52580055117431       -4.32988605634767        2.59678095394597
H           -7.83635299893754       -2.65207862080469        1.42948691883189
H           -8.85791635966844       -1.27059185660214        0.49492885030047
H          -10.09620328060952        0.45567063242373       -0.68009535751087
H           -8.91754963522674        2.35376700578993       -1.70904433283274
H           -6.48387667426839        2.50709008434648       -1.55017681301735
H           -4.56343198832199        3.94101861666808        0.15050153169826
H           -5.17850672468674        6.02404170631586       -0.78661923656677
H           -1.81938538101720        5.97101249457353       -2.09136286820704
H           -1.45315994668245        3.19312680596369       -6.79474336506860
H           -0.40987813856823        1.92791643397696       -8.43610596203534
H            1.72704306813967        1.09152373106254       -8.54768029152717
H            3.79021862639536       -3.13243495912730      -11.25932180918497
H            4.89000673907169        1.00484764145036       -5.94274669657249
H            6.82109439513540        0.84585237928839       -4.68659287437557
H            7.38185371724778        1.76172765645751       -2.66015925267088
H            4.39002415079348        6.07060735271064        1.13657750543501
H            2.17511413718729        5.80759322870454       -0.92190107403354
H            1.12886742884988        7.68251002954326        0.03225775946964
H            1.85190066908926        8.95871721732758        1.86721235681458
H            3.88795808157289        8.49831722941064        3.11075914341853
H            5.13784959954338        4.01929130914951        5.40045426076600
H           -4.04314171442605        1.80842830332612       -3.41361791051729
H           -0.34511747804226        0.37267493493477        0.61317634253220
H            1.89743451408578        1.33174270288517        0.30107654353714
