58
 energy: -12.887741559298 gnorm: 0.000728433628 xtb: 6.5.0 (97a52f5)
C            0.82841881956231       -0.81489469465148        0.90920586928994
C            0.40645710848326        0.49621002284616        1.01145317232996
C           -0.89999257872205        0.82489929463825        0.72813158407825
C           -1.81100522850368       -0.15201008844459        0.33001099421202
C           -3.20616824779765        0.17006421065514        0.03245792661472
N           -4.17633551744393       -0.72348601625916        0.08836690217389
C           -5.33181472263143       -0.07130691476719       -0.23298878823874
C           -6.63313052645066       -0.56415426907687       -0.32661952607267
C           -7.62373592371767        0.32691109688067       -0.70556170224392
C           -7.34572027994800        1.69112275690824       -1.00940814221000
C           -6.04524621206094        2.18554952761090       -0.90983021783456
C           -5.05737420609051        1.29867992133700       -0.51347056234606
N           -3.68001161800789        1.44751439709109       -0.34348219113025
C           -2.94407005816292        2.64367595273559       -0.66271428150902
C           -3.22128660799991        3.83716879984794       -0.00614820382510
C           -2.51639006717835        4.98081494724870       -0.30856846793955
C           -1.52791255012705        4.95011022054537       -1.27294247395085
C           -1.24806516797054        3.77163579042535       -1.93689832608814
C           -1.95174633294889        2.62673172193513       -1.63655973127521
N           -8.49099483020578        2.32631694337706       -1.39553324776402
C           -9.46151621044667        1.43323334552033       -1.33498515684096
C          -10.85417206777050        1.74594851237501       -1.65412223974666
C          -11.15289479359068        2.84120201164141       -2.46206547795616
C          -12.45781682030508        3.15636624914926       -2.76890107194971
C          -13.49106987365352        2.38868328703115       -2.26833665327968
C          -13.21440788309406        1.30688623026650       -1.45556774885096
C          -11.91045044470806        0.98993378665458       -1.14840881876466
N           -8.99265854540088        0.16509576425216       -0.92282895445653
C           -9.68360389232133       -1.09659300514546       -0.85448501822349
C           -9.70241488051001       -1.82568233297853        0.32884338114809
C          -10.36275928541933       -3.03212870436729        0.39599747598276
C          -11.01067070655296       -3.52940488001042       -0.71804574372930
C          -10.99405202398883       -2.81686163584965       -1.90126757263810
C          -10.33403631425789       -1.61032469563944       -1.97092657410110
C           -1.37046330385244       -1.47104163147225        0.24338595803186
C           -0.06317681916264       -1.79804598348161        0.52684443560506
H            1.85168522220071       -1.07093676369249        1.13018043203493
H            1.10073590918561        1.26296661286856        1.31424391556650
H           -1.23080737776419        1.84344096375916        0.82082759709514
H           -6.85401420997548       -1.59394600612588       -0.12442410996658
H           -5.81937809949628        3.20812327125935       -1.14110990320926
H           -3.98940743626983        3.84966856639745        0.74729631962316
H           -2.73555993465025        5.90042581226137        0.20897364445888
H           -0.97597401438217        5.84551354461662       -1.50763628716521
H           -0.47772896328954        3.74770051081773       -2.69022659962788
H           -1.74195284982091        1.70348801220061       -2.14784911518066
H          -10.34400977412469        3.43744735947923       -2.84652635673140
H          -12.67267529845084        4.00350371552743       -3.39966021327428
H          -14.51212416969416        2.63557042262657       -2.50894484093473
H          -14.01990112819007        0.70958346963679       -1.06061371680827
H          -11.69715790926444        0.15606859939199       -0.50448318780715
H           -9.19945032202035       -1.42727422760914        1.19266100441321
H          -10.37475795972538       -3.58847712199528        1.31894733085143
H          -11.52870101894888       -4.47292122519197       -0.66403316686736
H          -11.49899317183530       -3.20489053020469       -2.77075471076035
H          -10.31469632736654       -1.04718103058070       -2.88758817365208
H           -2.07104968557192       -2.23252126961136       -0.05186037059296
H            0.26437713241427       -2.82195262464507        0.45016970203348
