80
 energy: -17.921604849845 gnorm: 0.000530539164 xtb: 6.5.0 (97a52f5)
C            0.61987323695058       -0.05559761632518        0.79971851284162
C           -0.01578072745728        1.08144511162548        1.25617831020313
C           -1.38309586485751        1.19708463263832        1.14858918874672
C           -2.14351876709976        0.18108239831529        0.57251120682858
C           -3.62180332785331        0.25913800737071        0.50737096567180
N           -4.29011663697557       -0.81029691265582        0.87759514411601
C           -5.63370831093571       -0.67065443279820        0.90153226647354
C           -6.43395638336131       -1.76072536363808        1.30001905170039
C           -7.79280182526161       -1.65768347583031        1.36025211701120
C           -8.41888050776480       -0.45731552680404        1.02695201602083
C           -7.67514279333910        0.61770206938655        0.63731261898009
C           -6.26925648961457        0.54669128359028        0.56116845754754
N           -5.57356743684244        1.62851199907184        0.14889573256065
C           -4.27088671645379        1.46751137069469        0.09939533879107
C           -3.47542796438332        2.61025966297490       -0.40731815070988
C           -3.64880501834372        3.86847188465274        0.15298054105056
C           -2.90759382170962        4.96359042268789       -0.27789038725234
C           -3.07612374341169        6.31570393606513        0.29673532766438
N           -2.95730487703787        7.32434623280637       -0.53685820265766
C           -3.17424075124578        8.54519302509057       -0.00107157699741
C           -3.07452944483500        9.68660801025562       -0.82222101240862
C           -3.30610875714022       10.93672428231663       -0.32807414721162
C           -3.65072246027054       11.10637033165116        1.01233895524524
C           -3.75341419015479       10.02351597737021        1.83560882682281
C           -3.51775893355568        8.71736434325392        1.36025287017208
N           -3.60106463260175        7.67580194028921        2.21639124604553
C           -3.35360030722625        6.49707473697653        1.68968078692482
C           -3.32819345985559        5.33770687723047        2.61776782285434
C           -4.46509296520669        4.98901369183504        3.34333854412715
C           -4.44708701328340        3.91041117131280        4.19914985250544
C           -3.29122113125903        3.17259214391362        4.35964366986701
C           -2.14993858061605        3.51832171232461        3.66430972918254
C           -2.16637702575362        4.58816608805257        2.79794833912087
C           -2.01998375024418        4.78212501177285       -1.32972877837211
C           -1.84546257989782        3.54341990419242       -1.92757744600173
N           -0.94120928860907        3.39487367124738       -3.03271369842619
C            0.00766811134119        2.36613436575427       -3.19842183806185
C            0.34383201780784        1.29334603421850       -2.37574456304469
C            1.33063864855417        0.43071506458088       -2.78352127460131
C            1.99421751572370        0.61777313664232       -3.99873901505697
C            1.68080744676051        1.67504512875899       -4.81912967473819
C            0.68043366429982        2.56067539301516       -4.41665133536772
C            0.12817302927997        3.74805478899050       -5.02625328700723
C            0.40297303949903        4.40198905635862       -6.22779465063630
C           -0.31723096820471        5.52892819443855       -6.54466205128926
C           -1.30807313723133        6.01348146654451       -5.68657314141484
C           -1.58876559917976        5.38068248984370       -4.50079708450751
C           -0.86261840274526        4.23971164712033       -4.15932271893229
C           -2.57370081552878        2.46221211910173       -1.45505168504847
C           -1.48577635898276       -0.96166647742617        0.12495171225048
C           -0.11779213541668       -1.07674394503438        0.23493379796421
H            1.69025797024856       -0.14649448687320        0.88563070787195
H            0.55830327477777        1.87791222155670        1.70052488402344
H           -1.88271544598958        2.07188056490958        1.52456946555797
H           -5.94489355173080       -2.68254483835955        1.56140562640015
H           -8.38560137072886       -2.50365831856845        1.66722822701606
H           -9.49267236596900       -0.38155302655226        1.07758250560753
H           -8.15293165183071        1.54538039867417        0.37574585142074
H           -4.36650410695751        3.98355223596447        0.94299500296682
H           -2.81049246350187        9.54851997982948       -1.85596332426004
H           -3.22403891313800       11.79625059895691       -0.97293558984360
H           -3.83427153287216       12.09626474663244        1.39664381581324
H           -4.01379330215985       10.14879924754165        2.87186889538910
H           -5.36221847729362        5.56962827212068        3.21631959931356
H           -5.33669538054809        3.64222357969589        4.74512958284610
H           -3.27880620206478        2.32866795695494        5.02979128143287
H           -1.24463867615310        2.94974315568753        3.80085724305398
H           -1.28126738909102        4.85848615300865        2.24825603404773
H           -1.46052964520021        5.62396655096541       -1.69081321066568
H           -0.15885976088778        1.16359834595615       -1.43538951721662
H            1.60041362865648       -0.40172644152851       -2.15526463181753
H            2.76504324193220       -0.07491088722518       -4.29384900822773
H            2.18995662221192        1.82897013880626       -5.75402682956655
H            1.16448985231656        4.02040782229297       -6.88463729762785
H           -0.11688501781844        6.04631864323678       -7.46836701522371
H           -1.86040709606387        6.89717022196982       -5.96106303881113
H           -2.35340732120395        5.74622970074242       -3.83973249601519
H           -2.45495663907121        1.50128692589364       -1.91960814754189
H           -2.06702125585543       -1.75937358233594       -0.30375036457108
H            0.37678016743483       -1.96742294566458       -0.11645548091979
