76
 energy: -17.064375568773 gnorm: 0.000578744747 xtb: 6.5.0 (97a52f5)
C            1.23227831288814        0.21540536347131        1.06508232148398
C            0.73947881971943        1.49978001857371        1.18119772549094
C           -0.61890376345089        1.72254987952336        1.16085388404882
C           -1.51484449274861        0.66351789831345        1.01441482460647
C           -2.98115409149580        0.87225016506727        1.05487885897953
N           -3.68314826195709        0.02742034706280        1.77776026825871
C           -5.00228731503022        0.30479650126858        1.87054783969995
C           -5.83436050865657       -0.54128545303738        2.63197702162951
C           -7.16612510046890       -0.28264963167676        2.77703770466628
C           -7.73231659123689        0.83620207904178        2.16749437696262
C           -6.95724286249527        1.67491623548913        1.42109090157146
C           -5.57819628147556        1.43810999872175        1.24857525739488
N           -4.85350261798323        2.27923267642235        0.47924149388075
C           -3.58099011105657        1.97213161759530        0.36164395649478
C           -2.77570542151712        2.79896929426105       -0.56852168209398
C           -2.77189059352455        4.18336118503516       -0.44829882266310
C           -2.05058344405851        4.97610749486915       -1.32819601965017
N           -2.02310261437604        6.40489748638979       -1.17222904482035
C           -1.61859620869404        7.10232976422244       -0.01641735633557
C           -1.19103140831177        6.63709512931052        1.22663182931701
C           -0.82431743520962        7.55206556497600        2.18262608086936
C           -0.87266110636017        8.92496464743000        1.92246785111944
C           -1.28593247659647        9.39962008156282        0.70063753604402
C           -1.66134150561854        8.48192873706249       -0.28173930065972
C           -2.11311859025237        8.64271393334962       -1.64455461822115
C           -2.34786887587677        9.77019079556131       -2.43329668754812
C           -2.78802308506316        9.59245166298913       -3.72317765956038
C           -3.00173066752555        8.31148346229403       -4.24088267097909
C           -2.77609177052449        7.19334687887309       -3.47674933660368
C           -2.32447627286308        7.35566656503128       -2.16776274201492
C           -1.33927701638163        4.37000222923460       -2.35236691926557
C           -1.33296596018670        2.99153529056016       -2.50179338299889
N           -0.59368376877186        2.37924885411561       -3.57093947102589
C            0.29852226694961        1.29475087142355       -3.45212183466354
C            0.70344764741453        0.56308344608886       -2.33781578919487
C            1.61652546654717       -0.44797384628034       -2.50609453130380
C            2.13921451306575       -0.74481711486396       -3.76778850354996
C            1.75475946601032       -0.03050787151475       -4.87707271367826
C            0.82699565618806        1.00059743825145       -4.72074792025910
C            0.23716332179599        1.92884426300765       -5.65652051179202
C            0.37900078351766        2.09195439868623       -7.03550217968942
C           -0.34666998507285        3.07744614811951       -7.66068095917740
C           -1.21362946392156        3.90106798001978       -6.93678714862818
C           -1.36275171858988        3.75202484567317       -5.58014383349732
C           -0.62832369021815        2.76233113588419       -4.92754620830615
C           -2.05288260934298        2.21630488517026       -1.60505617697029
C           -0.99865055371033       -0.62551355288492        0.90603959486721
C            0.36053755381926       -0.84630892294834        0.92771730739026
H            2.29578379555965        0.04186199762275        1.08233378311934
H            1.41903231620557        2.32918085615899        1.29039792853675
H           -1.00355030375685        2.72155491008291        1.26894525673179
H           -5.39169611967064       -1.40120893957450        3.10314397124758
H           -7.78376738374897       -0.94218752471060        3.36428539227021
H           -8.78491816566834        1.03521073214346        2.28552688001790
H           -7.38953641279637        2.53662474849036        0.94362152653153
H           -3.34204846897673        4.64802966492965        0.33396581862342
H           -1.14856660658494        5.57938225682365        1.41524615502567
H           -0.49089926208401        7.20768027897750        3.14779693125520
H           -0.57745989571544        9.62029826028315        2.69098811841806
H           -1.31979497539305       10.45412073555712        0.49095772506008
H           -2.18372912095022       10.75267356436312       -2.02733103264639
H           -2.97374182395359       10.45251091777572       -4.34529358207265
H           -3.35162701387674        8.20087541209899       -5.25413465827948
H           -2.95211543205201        6.20526474373021       -3.86110592746357
H           -0.77053773105908        4.97821054136563       -3.02969327754110
H            0.30638276324732        0.80303845158480       -1.36895895968700
H            1.93751989064400       -1.02055282888623       -1.65194052073696
H            2.85586259532722       -1.54296112101153       -3.87063260601967
H            2.15509080438564       -0.24884920856955       -5.85129660221817
H            1.04331999105299        1.44980718839880       -7.58630068209349
H           -0.25023006993128        3.21558677034092       -8.72503161582243
H           -1.77519514299873        4.66263199689161       -7.45255747051327
H           -2.03746232756595        4.37287581502344       -5.01998922182100
H           -2.06379024853262        1.14883838242650       -1.72260258229627
H           -1.68237424560995       -1.45072026029934        0.80939247270736
H            0.74382302719236       -1.84988919887424        0.84116417005241
