56
 energy: -12.446972504917 gnorm: 0.000790779293 xtb: 6.5.0 (97a52f5)
C            1.03790292279700        0.12816097861559        1.76172673075430
C            0.33859090951795        1.30621035433886        1.93324210692603
C           -0.99167333408487        1.37645844727196        1.58528311965878
C           -1.64648301562539        0.26865805367593        1.04711338769395
C           -3.07938816246563        0.32412453163069        0.66787688574345
N           -3.85641067196227       -0.62243910493353        1.14567937595633
C           -5.16837634888713       -0.49511736908924        0.85022673819597
C           -6.08027195944113       -1.45737980518595        1.32961927427420
C           -7.41676951725078       -1.35582049134029        1.07534912212492
C           -7.90751308964187       -0.28491598678653        0.32937133301470
C           -7.05308038116831        0.66401305001876       -0.15073599293574
C           -5.66587639600418        0.59045337048267        0.09094667178887
N           -4.85313646975480        1.53896910707213       -0.42266053381318
C           -3.57282028503342        1.38356844384907       -0.16229253975039
C           -2.64180166522829        2.35016904314516       -0.78547662689977
C           -2.97249417980293        3.70423301439769       -0.83319002685960
C           -2.12010273884777        4.61884235648939       -1.40162848363201
C           -0.90675758591300        4.21199764109339       -1.94855357421290
N            0.00421333527526        5.16936671153737       -2.51043902938392
C            1.37323499324265        5.29135562119253       -2.19063227639169
C            2.16124236220122        4.59279505558867       -1.27657776837845
C            3.48597429220687        4.93261065388330       -1.15157169155533
C            4.04116366473343        5.95980601549211       -1.91967325500247
C            3.27577488172956        6.66517045062814       -2.81759051289927
C            1.92708114764286        6.33361309669544       -2.95326055228850
C            0.86829300772323        6.87197756255873       -3.77645808059966
C            0.84264504717282        7.89205252650031       -4.72837567934608
C           -0.34045540552989        8.16161392961546       -5.37416970106811
C           -1.49765998612972        7.43105290178891       -5.09058971507060
C           -1.48833814028881        6.42593515144654       -4.15460087354591
C           -0.29877481295572        6.14566646461249       -3.48339921994853
C           -0.58417736187791        2.85868745360281       -1.92925353466046
C           -1.43929423697458        1.94403078490216       -1.36781690252432
C           -0.92949550902857       -0.91598416037831        0.89619033734316
C            0.40069520068813       -0.98300815882516        1.24613926824441
H            2.07935603131568        0.07481814597411        2.03382318740456
H            0.83490985057229        2.17212993957998        2.33983577788573
H           -1.54055815762151        2.29227150340257        1.72065947098025
H           -5.69586025155365       -2.27889617654251        1.90809962771641
H           -8.09660185622218       -2.10254502505118        1.45166256084236
H           -8.96425975029039       -0.21008268944917        0.13179510159624
H           -7.42554737850431        1.49038510737832       -0.73013984109381
H           -3.90693555694413        4.02346148310523       -0.40564122395883
H           -2.37063219073773        5.66506824349439       -1.41401694953367
H            1.72425720387864        3.81071786657217       -0.68205712086445
H            4.10713621577244        4.40036827497341       -0.45003251858212
H            5.08425315532513        6.20368139688128       -1.80280188253729
H            3.69472629197527        7.46065982775515       -3.40806525742123
H            1.73877169489399        8.44567874348155       -4.94621489048490
H           -0.37693488447171        8.94514125040372       -6.11304577111050
H           -2.40997651689925        7.65823731421714       -5.61720339311197
H           -2.37163729140815        5.85209084725262       -3.93895565820932
H            0.34438041042908        2.54005190677171       -2.36953248149251
H           -1.18430154101458        0.89879821767495       -1.36649163468186
H           -1.43159954017911       -1.77838668470754        0.49335747802987
H            0.94501355062740       -1.90422718875906        1.11734763767190
