36
 energy: -7.835674424420 gnorm: 0.000869772180 xtb: 6.5.0 (97a52f5)
C            1.17558934464706       -0.13319150385750        0.96777322262403
C            0.57941822074195        1.05336521420926        1.34492655981565
C           -0.74759156852900        1.28116666961967        1.05767896879888
C           -1.50363376170135        0.32799253242234        0.37629368176241
C           -2.93964797909755        0.54519815968568        0.07838401575962
N           -3.76372033359483       -0.43489819081377        0.37542657176242
C           -5.07234434230481       -0.17080218721633        0.16636766974197
C           -6.03255451263201       -1.15889757077224        0.46462802803423
C           -7.36520432761196       -0.92903600264986        0.28675366225983
C           -7.80388376005276        0.30256415211511       -0.19822141969146
C           -6.90211628189775        1.28103097447450       -0.49835210732090
C           -5.51748048815830        1.07760794989837       -0.32846133677475
N           -4.65767035889158        2.06636583794336       -0.65791854828955
C           -3.38615925494326        1.78467230630264       -0.48193220282457
C           -2.40291265755508        2.80603050783358       -0.91860372548477
C           -2.53236296421803        4.12778839860059       -0.49951697657889
C           -1.62828543097049        5.08505357989022       -0.90335957370253
C           -0.58570158107898        4.74327656187564       -1.74148803668897
C           -0.45261692259057        3.44102667455851       -2.18053293464971
C           -1.35338101554082        2.48115086052748       -1.77699723044748
C           -0.88919489079550       -0.86874642968860        0.01631066218895
C            0.43817520077213       -1.09446997987119        0.30591008947254
H            2.21407372900709       -0.31139973081490        1.19417846820195
H            1.15279131382364        1.80205754498567        1.86653083404612
H           -1.21628529099350        2.20177434326657        1.35917390464905
H           -5.68839280879755       -2.10652187056328        0.83961948231809
H           -8.08270734274795       -1.69824402569490        0.52118264508410
H           -8.85797200386091        0.47957570727624       -0.33459951509941
H           -7.23382416057313        2.23223144402854       -0.87582986683734
H           -3.34883489792605        4.38819433833460        0.15148585625951
H           -1.73465601081012        6.10253912561088       -0.56412834806679
H            0.12181121448887        5.49318162029191       -2.05557956763603
H            0.35743220312554        3.17517812736660       -2.83978762738040
H           -1.25534648343356        1.46582540767086       -2.12034312355212
H           -1.47036214441174       -1.61666873223035       -0.49437717739132
H            0.90114234911228       -2.02398181461918        0.01741499564055
