39
 energy: -8.735118178613 gnorm: 0.000900235924 xtb: 6.5.0 (97a52f5)
C            1.10014495326725        0.22278386339053       -0.17112325400440
C            0.51499332160485        1.45858455796809       -0.36437108593441
C           -0.85263686991921        1.59447761494184       -0.28408976224959
C           -1.66139200137556        0.49671583267029        0.00029714012383
C           -3.11444906306844        0.65650391778301        0.06531164598800
N           -3.76527297988928        1.58875491728602       -0.60116360064599
C           -5.09404034486580        1.41484637229834       -0.34446642519566
N           -6.10305964907720        2.13984109811181       -0.80935610841651
C           -7.29619033055614        1.72058153795510       -0.35622327482902
C           -8.45856989886586        2.40755712115740       -0.77989953260724
C           -9.69893641358628        2.03375547513303       -0.36281422506935
C           -9.85409436201029        0.95040071089264        0.50677194836617
C           -8.76534422991986        0.26021123288852        0.94363274547869
C           -7.45574386982847        0.60927504747566        0.53771771918286
N           -6.42442499696166       -0.11471025414340        1.00449349203015
C           -5.26808926855835        0.31390220516380        0.53811344526633
N           -3.98782411878754       -0.15935292717978        0.80895441274147
C           -3.69575818044125       -1.18745173720159        1.76881754780003
C           -4.39069314553896       -2.38984232138275        1.74167526464375
C           -4.11903441276856       -3.37638737888374        2.66278556233670
C           -3.15310180264643       -3.17378836507418        3.62862741991880
C           -2.46342865493485       -1.97825541528592        3.67346956724439
C           -2.73428522449102       -0.99051340565100        2.75348434615768
C           -1.05505034522245       -0.74516353339199        0.17982137388200
C            0.31235305637827       -0.87881576481160        0.09808399812377
H            2.17076041065385        0.11755698676215       -0.23489216285982
H            1.12922211981551        2.31746894864110       -0.57990940005868
H           -1.31578852880697        2.55325764094591       -0.43943296128380
H           -8.33790668028912        3.24021047516175       -1.45035982203723
H          -10.56713491601585        2.57382324051171       -0.70316527332501
H          -10.84086716842424        0.66420833969501        0.83174610645272
H           -8.88200670506690       -0.57436166368048        1.61275358575206
H           -5.14661269376605       -2.53336614700941        0.98992896280288
H           -4.66211071739064       -4.30673144019812        2.63057621019398
H           -2.93967773267318       -3.94695210607359        4.34827036242201
H           -1.71224905543923       -1.81727569804333        4.42927662432065
H           -2.20487361569417       -0.05430185869813        2.78364871164117
H           -1.67086572510444       -1.60520314520038        0.37374634894204
H            0.76781984026616       -1.84483397492408        0.24241234670469
