27
 energy: -5.765617935586 gnorm: 0.000752427648 xtb: 6.5.0 (97a52f5)
C            0.70313239400301       -0.07114299469578        0.34775791773768
C            0.27921700831628        0.77951310568124       -0.65426080401085
C           -1.06583749578296        0.99806383398458       -0.85081603607515
C           -2.01498676681504        0.36880955576414       -0.04726768205670
C           -3.43100783491496        0.60525115612538       -0.26264766383369
N           -3.89413389174652        1.40814264122197       -1.18776077628900
C           -5.26228214535088        1.44112614120562       -1.17602056878434
S           -6.45479465467208        2.30116698220643       -2.16151318782471
C           -7.79217808930657        1.58657674854338       -1.27270172786473
C           -9.15475550640974        1.77298991086577       -1.45594656368281
C          -10.04142898612683        1.10815938608887       -0.64108935095629
C           -9.58410411991947        0.25452656040826        0.36115042377476
C           -8.23906361242964        0.06000407388424        0.55468563296864
C           -7.32689779515494        0.73035885468979       -0.26812658909360
C           -5.88443310623957        0.65922454113842       -0.23051470974673
S           -4.68421269133017       -0.17450160986935        0.71138822912798
C           -1.56856278491901       -0.48643227766366        0.95965114520985
C           -0.22308835697519       -0.70328161299441        1.15405097694014
H            1.75622648322644       -0.24149085822372        0.50060267250029
H            1.00214097733826        1.27260101825807       -1.28332005990536
H           -1.40341714153302        1.65926614364906       -1.62943757803595
H           -9.49927267159849        2.43335839078484       -2.23277178447111
H          -11.10096535800488        1.24774062938100       -0.77888821049404
H          -10.29402190908927       -0.25755433015923        0.98958237273815
H           -7.87464540981250       -0.59661706974740        1.32479873745169
H           -2.29352792016261       -0.97699938456731        1.58521854787720
H            0.10786138541205       -1.36596953595813        1.93700663680426
