25
 energy: -5.444566883509 gnorm: 0.000668191981 xtb: 6.5.0 (97a52f5)
C            1.35194120454619       -0.19884145935458        0.03515649191174
C            0.88188973210844        1.04136605271785       -0.34987720877687
C           -0.47289022572644        1.28137805393598       -0.39645424513116
C           -1.38704370240910        0.28671337992171       -0.04968836358669
C           -2.82123599161448        0.55635083122772       -0.12075685715229
N           -3.36634464202376        1.44334305368783       -0.96091077469619
C           -4.67878171271028        1.40982217976421       -0.76196279003183
C           -4.99901817998426        0.49385429510255        0.24529560064121
C           -6.23174369085457        0.12676344614374        0.82655756085828
C           -6.21841881330094       -0.77074857441891        1.84460011858960
C           -4.99799362613759       -1.30722231214743        2.30973200053378
C           -3.82204988543261       -0.95179827593468        1.73919997780590
N           -3.80307004276119       -0.05640128011861        0.67548530756861
C           -0.89436134710693       -0.96404313218572        0.32351757017095
C            0.46122239032412       -1.20096723204897        0.36718854861939
H            2.41261255780975       -0.38650120758128        0.07030915607558
H            1.57635135866013        1.82158901125163       -0.61526161607357
H           -0.84550841324957        2.24435414031365       -0.69886446192290
H           -5.38732287436249        2.02452807289227       -1.29669725812690
H           -7.14744337749145        0.55948148199990        0.46414775052016
H           -7.14248678694458       -1.06956426786230        2.31167716627139
H           -5.00634467698681       -2.00088063527221        3.13412846131931
H           -2.88911035222666       -1.32594043201430        2.11765667209533
H           -1.58578765189023       -1.75870697380888        0.53815837417744
H            0.82839874976508       -2.17266821621043        0.65435281833968
