68
 energy: -15.020926918460 gnorm: 0.000396541041 xtb: 6.5.0 (97a52f5)
C            0.56749155001267       -1.32384972032187       -1.65363366083939
C            0.12846384917753       -0.06789120962914       -2.02348832864023
C           -1.13410211434342        0.35242879045167       -1.67031915365351
C           -1.98287394087281       -0.47043076238260       -0.93058640044341
C           -3.31917459856526        0.00824101295275       -0.57358430977554
N           -3.95774422664669        0.94076818144926       -1.26072603857152
N           -5.14562162847045        1.13569458758668       -0.66833245349281
C           -6.11365163390269        2.06932181041128       -1.16623934104259
C           -5.85138843932168        2.77309378398866       -2.33246920094264
C           -6.76940583238180        3.67147689878210       -2.83140236923859
C           -7.96354192549437        3.87921222030458       -2.16880831364526
C           -8.23590896329801        3.18537652116327       -1.00609693184133
C           -7.31693153715199        2.28788155143440       -0.51080434094964
C           -5.31079279072273        0.32352245547754        0.47437336681547
N           -6.31971080091136        0.26540597731188        1.33092742887592
C           -6.14190663154318       -0.59475777365867        2.35741863865259
C           -7.16551062293639       -0.71923141036936        3.32775669321416
C           -7.04435706989029       -1.56419801165040        4.38450907582582
C           -5.89070038324516       -2.36146943075869        4.55872508873505
N           -5.79825266552842       -3.27164905164102        5.66247204998585
C           -4.52297874103162       -3.54552350701040        6.26561984031659
C           -4.24639961173315       -4.80965654965294        6.77992414272315
C           -3.03028638359692       -5.07981039355253        7.36594789967120
C           -2.06832241719497       -4.09225748836529        7.45110807599283
C           -2.32910525276693       -2.83159639012197        6.95034453335511
C           -3.54515266308660       -2.55887184598484        6.36506214945915
C           -6.98046247611703       -3.84733873544530        6.23919998900075
C           -7.16510708567689       -3.79890944557425        7.60621468425602
C           -8.31075129593701       -4.31536800512478        8.20433177490655
C           -9.28827246106672       -4.89285480399747        7.44639279115736
C           -9.14818014182273       -4.98926367781841        6.04483454648323
C          -10.13609851585820       -5.59963368460045        5.23936364025525
C           -9.96578817644710       -5.70875070233309        3.89122493541630
C           -8.80376369586944       -5.22241385075495        3.28532088891154
C           -7.83437005685571       -4.62433996747979        4.03583210218755
C           -7.98126296610027       -4.47426864302944        5.42885197194323
C           -4.87705716047378       -2.26345399649542        3.63818506014372
C           -4.96452425480258       -1.39091029561056        2.53207713974235
C           -3.92851128411099       -1.28388780458759        1.60475209746274
C           -4.12071917886555       -0.41509738029353        0.55062434500634
C           -1.52769291945625       -1.74245523156142       -0.58019071820443
C           -0.26483094527391       -2.16058538736352       -0.93619397893543
H            1.55590720488443       -1.65288685709261       -1.93003238533451
H            0.77411869651196        0.58332279530883       -2.58978296096280
H           -1.48280672525396        1.32893625669606       -1.95804058018687
H           -4.91816959922889        2.60260025517448       -2.83923372265428
H           -6.55577232501145        4.21155685372139       -3.73923554642610
H           -8.68229974211201        4.58110823614131       -2.55907739807583
H           -9.16707794974743        3.34561263038347       -0.48763757342212
H           -7.52126954220124        1.74232517558808        0.39062799159512
H           -8.05205762916761       -0.12185992403667        3.20726256926629
H           -7.83476246821968       -1.64248327038770        5.11006300946617
H           -4.99852678587454       -5.57551709517345        6.70642618759805
H           -2.82872511991326       -6.06309509800865        7.75849534449553
H           -1.11613455979703       -4.30461265882729        7.90910223227435
H           -1.58016132161961       -2.05966945729351        7.01948798828381
H           -3.75808776133220       -1.57412913212756        5.98758748434055
H           -6.40701096215020       -3.33266074700352        8.21071453730482
H           -8.42623374633790       -4.25407883923419        9.27411819915443
H          -10.17431318097317       -5.28940157805617        7.91118788019091
H          -11.02662556218298       -5.98219855486973        5.70746505435604
H          -10.72643532791925       -6.17635340713953        3.28767806689263
H           -8.67578611004515       -5.32156742951920        2.21984312635205
H           -6.93908619647893       -4.25930657655572        3.56656349979714
H           -4.00238521464236       -2.87618470450837        3.75280010859164
H           -3.01452327521218       -1.83143931832841        1.73274291294521
H           -2.18633865581037       -2.41471950768402       -0.06105831548678
H            0.07332195002193       -3.14580668129143       -0.65922712064196
