62
 energy: -13.632356525796 gnorm: 0.000378681315 xtb: 6.5.0 (97a52f5)
C            0.76407626522034       -1.13919369906809       -1.48426783250340
C            0.30714250312752        0.10696040679115       -1.86549830964562
C           -0.97985821175963        0.49119705637999       -1.56308906736784
C           -1.83616189714879       -0.35903923302984       -0.86412290154655
C           -3.19853329227076        0.08090959278086       -0.55869528703178
N           -3.84203391634855        0.98876564276174       -1.27374988010562
N           -5.05328495181219        1.15308011939631       -0.72019499003994
C           -6.04008023003195        2.03685819593254       -1.26946631336142
C           -5.74314546902299        2.77521193933482       -2.40569104724122
C           -6.67891314237087        3.62433533267747       -2.95528502407665
C           -7.92667002082678        3.74599793183993       -2.37521110284679
C           -8.23452533811029        3.01609668727078       -1.24378819780882
C           -7.29698737306025        2.16927578396094       -0.69676827780723
C           -5.22993972570012        0.34648814299845        0.42506195080272
N           -6.26092084179191        0.26667403644280        1.25360208055977
C           -6.08965335960926       -0.58276906948302        2.29035181322801
C           -7.13073814590054       -0.72112154516611        3.23973560622149
C           -7.01363405735846       -1.55147210510300        4.30917450853812
C           -5.84981443825805       -2.32659468770508        4.51563373921900
N           -5.74457293922040       -3.20598638638334        5.64074416338319
C           -4.45529683366852       -3.55750176341377        6.16983655295118
C           -4.18498952600416       -4.86831928908174        6.55582424611587
C           -2.95000790040507       -5.21331790808158        7.05668346801201
C           -1.96255674700099       -4.25586244885269        7.18395192769175
C           -2.21656289691056       -2.95017005321223        6.81116769762659
C           -3.45106293644941       -2.60238960296777        6.31049159412857
C           -6.92022205036969       -3.77544064244504        6.23879054409351
C           -7.00998265716619       -3.91417387986677        7.62192731048090
C           -8.13135359849475       -4.46207574446238        8.20281866627886
C           -9.18336601331155       -4.88451271670765        7.41372978987316
C           -9.10759272618668       -4.75968915636656        6.04007501071534
C           -7.98668994387463       -4.21284611864570        5.45670530763012
C           -4.82033668117493       -2.21420329280081        3.61382146809657
C           -4.89948843870858       -1.35047049748656        2.50024557688395
C           -3.84009674121448       -1.22050585701406        1.60320692227557
C           -4.02310103939187       -0.35838231019519        0.54190298351890
C           -1.36166399917604       -1.62047763174522       -0.50122089298906
C           -0.07432782822231       -2.00241903181099       -0.80639174154335
H            1.77173945742153       -1.43983434308513       -1.72053900321895
H            0.95823349201406        0.77901061749058       -2.40031984801310
H           -1.34231718757474        1.46019078473341       -1.85912669122026
H           -4.76896114754470        2.67029582433085       -2.84924574854626
H           -6.43734702604243        4.19281102763968       -3.83848689967616
H           -8.65905298173737        4.40960706930286       -2.80502074234401
H           -9.20745140017177        3.10951438854366       -0.78960724459156
H           -7.52626561151254        1.60057741199429        0.18417902355118
H           -8.02542399745608       -0.14112918414282        3.09640039499860
H           -7.81184752604414       -1.62270302570424        5.02672547447081
H           -4.95645904763453       -5.61046883816019        6.44745514108183
H           -2.75313500724872       -6.23208050906940        7.34815745743092
H           -0.99538914475215       -4.52720414902037        7.57438251706623
H           -1.44697297034760       -2.20248994334402        6.91243500823974
H           -3.65774279942320       -1.58480636917688        6.02845144426357
H           -6.18908939956901       -3.57859631392843        8.23113770790713
H           -8.18866398449441       -4.56052067330307        9.27456779534610
H          -10.06158805881319       -5.31194074113921        7.86925818251569
H           -9.92679222706378       -5.09237979239296        5.42383043676377
H           -7.91703215351350       -4.12651461880286        4.38652191046577
H           -3.93362343693381       -2.80398286038225        3.75232861498374
H           -2.91633670074019       -1.74371130854335        1.75976988456099
H           -2.02284938319079       -2.31296859067591       -0.01270708145462
H            0.27892538234412       -2.97935206063009       -0.51916979698406
