39
 energy: -8.714746839141 gnorm: 0.000728333692 xtb: 6.5.0 (97a52f5)
C            0.92428769808482       -0.48624653596627       -1.29636461067136
C            0.31486703105145        0.67111868854637       -1.73802961750323
C           -1.00653634211201        0.91172687754195       -1.43703195253455
C           -1.74497315317885        0.00481152625696       -0.67855821015467
C           -3.15085622463820        0.28685776542548       -0.38719563003491
N           -3.90028760889830        1.06859918714179       -1.14638680270790
N           -5.12826413605433        1.09220464839088       -0.61667783668112
C           -6.19952098391607        1.83871736585685       -1.21022568557166
C           -7.44590460644764        1.83737106148095       -0.60543217146110
C           -8.47821748915246        2.54415093611783       -1.16062682986374
C           -8.22528425451372        3.23729985437780       -2.31805114913932
C           -6.95909388959128        3.18491581516872       -2.85355358487183
N           -5.94734800763419        2.51051281140806       -2.33573715960327
C           -5.21679540302337        0.31078878433384        0.55534617968497
N           -6.24692106172311        0.10669453107751        1.35969599040639
C           -5.98328649610718       -0.67293738765482        2.43341901922803
C           -7.02931956861289       -0.94759067399115        3.34425512114863
C           -6.82568849874616       -1.71549718547174        4.44996880473660
C           -5.56180818295688       -2.25828707797102        4.71743895465468
C           -4.52217469625815       -2.02393859455974        3.87352468868334
C           -4.69604148454845       -1.23213251701717        2.71126008650759
C           -3.64413122028062       -0.98349483529660        1.83072201385919
C           -3.92515091578100       -0.21005846620547        0.72453349827697
C           -1.11632099841459       -1.16613427743633       -0.25365123143408
C            0.20495570529094       -1.40486602416820       -0.55818685818240
H            1.95839221885030       -0.67540030987366       -1.53348307924097
H            0.87305152034419        1.38571836282129       -2.32023729544932
H           -1.48906785541343        1.80901492448701       -1.78325719753734
H           -7.59071820111745        1.27799577759201        0.29853624245456
H           -9.45484364823367        2.55528346952532       -0.70481557141336
H           -9.00263365372347        3.80932535448557       -2.79744343607351
H           -6.75334520060067        3.72685686660727       -3.76441530037474
H           -7.99959793240632       -0.52937221606819        3.14171169238673
H           -7.64135232374499       -1.90941145021163        5.12708712328022
H           -5.41765246194913       -2.86483276046408        5.59637322000520
H           -3.55145313897533       -2.44181250201871        4.07716851391859
H           -2.65726551097087       -1.35537179256133        2.02904657844897
H           -1.68316411090688       -1.90599689363741        0.28136381344669
H            0.67710508701232       -2.31468310807177       -0.22543033062361
