40
 energy: -8.063690509198 gnorm: 0.000543682005 xtb: 6.5.0 (97a52f5)
C            0.92923835907398        0.02579040091626        0.15693342436990
C            2.46182565001459       -0.05072309424873        0.02711091227406
C            2.98149777744117        1.32303186393760       -0.43971890352998
C            3.08357109589797       -0.36151141526903        1.40198074071447
C            2.82962832587952       -1.16686651050434       -0.96295722723786
C            3.50268578562903       -0.92180033440413       -2.15990799068431
C            3.81064808526266       -1.94143173628504       -3.02616679305770
C            3.46400237836612       -3.26827069479178       -2.74851065493092
C            3.77628133344222       -4.37233026938988       -3.65403650384320
C            4.43952615227133       -4.16328216553323       -4.87057388801934
C            4.72411806372097       -5.20378611220177       -5.71687441923646
C            4.35436475083034       -6.49296523651758       -5.37739610263806
C            3.70443877100930       -6.72984718504973       -4.19391088331970
C            3.40127321604222       -5.68864583060477       -3.30787175135756
C            2.70952137051520       -5.93679967660088       -2.04509307369106
C            2.32062135964294       -7.19941295325288       -1.61911823787024
N            1.69925910429136       -7.42767647562036       -0.48997176011243
C            1.46730982599042       -6.34166643815129        0.22616318088595
N            1.76572900572297       -5.09179712049807       -0.02429302149972
C            2.40218407950089       -4.87963235569043       -1.18275508013603
C            2.78574776706800       -3.52773960255226       -1.54377112221061
C            2.48327395437406       -2.47028500709548       -0.68256053423430
H            0.63492157985633        0.81925673009806        0.84302316324784
H            0.51713746909764       -0.90965798978584        0.53239603260941
H            0.47091543115694        0.22841465451053       -0.81044184433207
H            2.72081353142448        2.09897047360981        0.27940837595911
H            2.54505504394165        1.60350971853366       -1.39759116021062
H            4.06625368014857        1.31791972325255       -0.54043408523063
H            2.86561455481631        0.43151788227615        2.11634921381104
H            4.16588614813688       -0.45589037277697        1.32201805862610
H            2.69596921279653       -1.29264550702516        1.81222489892751
H            3.78789822635573        0.08330299333163       -2.41462698503279
H            4.33073532434147       -1.70557391524443       -3.93636148725757
H            4.73407105497912       -3.16998169919887       -5.15525239039985
H            5.23511296141960       -5.01917987514644       -6.64787408087583
H            4.57732241288733       -7.30965397783383       -6.04467622541125
H            3.42337695378233       -7.73781270173022       -3.94916992290961
H            2.53194865069734       -8.05996282135564       -2.23082366828627
H            0.95481743672509       -6.51253581914108        1.16356229131358
H            1.96135411544934       -2.69786954696629        0.22788950481609
