82
 energy: -18.493756672817 gnorm: 0.000637504991 xtb: 6.5.0 (97a52f5)
C            1.41169721411273       -0.60703187635613       -1.33884374717267
C            0.72704991031052       -1.52127830842913       -2.11616886092929
C           -0.64732271870813       -1.58395160694827       -2.05880467824698
C           -1.35517946732580       -0.72873198910536       -1.22111320416391
C           -2.80971368095736       -0.77074168985069       -1.14249448274302
N           -3.60884515027524       -1.62620333744764       -1.78496575174689
N           -4.83839461623554       -1.35662442679864       -1.45548561211926
C           -4.82986900861115       -0.32543448824862       -0.60346671653411
C           -6.02519745598935        0.26105035963328       -0.01538610332529
C           -7.26903644815544       -0.25935568301549       -0.33282541179147
C           -8.44036218263357        0.26891639152097        0.18528472401959
C           -9.71963955188572       -0.28625804716266       -0.23299663132121
N           -9.85266807357348       -1.34393408241580       -1.04121710723675
N          -11.12216624297877       -1.57259885453263       -1.21192808501936
C          -11.80530993502050       -0.66419191535894       -0.51107636672026
C          -13.25616677723898       -0.56938072860632       -0.40814751487145
C          -14.09380370778486       -1.36266096403228       -1.18482999127149
C          -15.46137853164762       -1.25003284784826       -1.07004296966104
C          -16.00983511813038       -0.34779983427542       -0.17897640863831
C          -15.18735915070453        0.44231898842471        0.60022316040284
C          -13.82025574751720        0.33275053718043        0.48681479640317
O          -10.94591759719872        0.17854135581334        0.11871646984348
C           -8.36222017867178        1.36014427950145        1.07575791116473
N           -9.53630827917346        1.94341876534902        1.66817377435775
C          -10.39621251239112        1.33446615673860        2.60592585167991
C          -10.33470579926123        0.08389206361581        3.21773156307946
C          -11.34230371313916       -0.27928845831421        4.07657999948192
C          -12.41074107140504        0.58289571037393        4.33927931323450
C          -12.48494624597830        1.81975885425379        3.74562219565472
C          -11.46881611073494        2.20244609093142        2.86905424776291
C          -11.25912021471333        3.39319132301439        2.08097587464549
C          -11.99480416494925        4.57047979806216        1.93857553965766
C          -11.52660621268511        5.54003780342691        1.08484393730052
C          -10.33959895934754        5.35784036593407        0.36913243435531
C           -9.60604157702065        4.20435339260365        0.49735371607718
C          -10.06744743488316        3.21186118476284        1.35970202040168
C           -7.11966064593624        1.89097077700100        1.38025751682189
C           -5.94990259684600        1.36626018221469        0.85672252153626
N           -4.69121288315821        1.98248407394040        1.18765193557635
C           -3.72805107940947        1.49223029400653        2.09362223533765
C           -3.75722980148781        0.38584007810804        2.93994876531289
C           -2.64891116944289        0.11162787661891        3.70251609275181
C           -1.51059911143487        0.92044780751927        3.63691007204126
C           -1.46550607809301        2.01342472313868        2.80557903412727
C           -2.58412967742653        2.30478717896225        2.02393718251932
C           -2.84622866892343        3.33071957578100        1.04310809331556
C           -2.07219050747103        4.38065271631314        0.54707042185615
C           -2.60608212720255        5.18812753286373       -0.42823235815592
C           -3.89563690702175        4.96710933515852       -0.92082520306401
C           -4.66795770391297        3.93660099203659       -0.44473035346448
C           -4.14162573834953        3.11107330719154        0.54660808115479
O           -3.55176550506333        0.07613694292150       -0.38248836596046
C           -0.65455642037662        0.18533899578628       -0.44244477743540
C            0.71898388613443        0.24577431265793       -0.50170535027530
H            2.48720554362628       -0.55915445508145       -1.38598961958889
H            1.26929765713896       -2.18604869335982       -2.76841262209406
H           -1.18916796787162       -2.29286844677592       -2.65989467611730
H           -7.32802999758762       -1.08928337159372       -1.01303080236862
H          -13.65756933076925       -2.06178666467175       -1.87643334657490
H          -16.10470103944503       -1.86624564669337       -1.67648958174735
H          -17.08036447740939       -0.26176675625665       -0.09058640236433
H          -15.61525609528736        1.14246056295998        1.29875191065695
H          -13.16679849807706        0.93105204696828        1.09807271098560
H           -9.51509930469398       -0.57668050259740        2.99807349248421
H          -11.31218375200867       -1.24557186759885        4.55241476969722
H          -13.18885497610367        0.27056239128679        5.01604906728942
H          -13.30544763794269        2.48714103082412        3.94088749715437
H          -12.90824804784273        4.70269493802046        2.49076293738647
H          -12.08288972964822        6.45481050879978        0.96333502732930
H           -9.99726279577902        6.13477084692803       -0.29433750454035
H           -8.69414049456194        4.05178106562735       -0.05168193995272
H           -7.06076849891267        2.73290696867915        2.04378540792605
H           -4.63435399426881       -0.23537228704490        2.97459788505421
H           -2.65470150257392       -0.74188447661621        4.36017061824096
H           -0.65452415705476        0.68009618272111        4.24548784622592
H           -0.59098436577238        2.63659857909615        2.74502924322707
H           -1.07834304204258        4.54049783969953        0.92588547880676
H           -2.02139246931090        6.00276167042918       -0.82260543588939
H           -4.28766601428359        5.61437056782067       -1.68790265628211
H           -5.65833122096561        3.75262677158102       -0.82119217448346
H           -1.20727743659602        0.83860283519500        0.21038802983919
H            1.25299289392222        0.95952737702767        0.10376140957748
