82
 energy: -13.303214083812 gnorm: 0.003611665360 xtb: 6.5.0 (97a52f5)
C            0.83868240130180        0.94317177271309        0.93810115255373
C            0.20852395793723        1.91053223636652        0.18060343370675
C           -1.13365366806618        1.79644707147198       -0.10358161566996
C           -1.86664377313796        0.71210683101356        0.36835659852749
C           -3.29343215174367        0.59463437020629        0.09334020360226
N           -3.98036506473376        1.41038868218203       -0.70947042312708
N           -5.21786651239024        1.02647386350486       -0.71500914115670
C           -5.33688949703499       -0.03613615455861        0.08666132882130
C           -6.56104196764899       -0.69873080623719        0.33210535826323
C           -7.75533653977110       -0.27643177407261       -0.12459844641679
C           -8.93205681130219       -0.88825838100986        0.14714246634255
N          -10.15592449996195       -0.49305949975039       -0.25675367042524
C          -11.27521668271429       -0.83483931264170        0.08597389497064
C          -11.06875478729741       -1.81191794857753        0.98357099525418
C          -12.20712024800708       -2.11096652359467        1.52940067236027
C          -13.39572424193328       -1.41894718367263        1.45847022567838
C          -13.57875107382380       -0.12745713388425        1.70510049359916
C          -12.66665542355319        0.74014005960061        2.09487993090354
C          -12.80300388051717        2.03152112996549        2.34850183364741
C          -13.91322699769599        2.79676804889377        2.27752976367542
C          -13.90905291237553        4.10460679174672        2.56633978459583
C           -8.54229609372144        9.79182589161139       -0.81666668737627
C           -7.66051688594338        4.15139080754610       -2.85634688121446
C           -7.58215306164803        2.87989080596517       -2.64270235068434
C           -9.97686681465459       -3.64483407351439        3.61955753242535
N           -9.53564298768746       -2.46406460288455        3.65627886654043
C          -10.09211491038030       -1.42279226856485        4.18648703193142
C          -11.26572396165961       -1.29572736552940        4.81587987249591
C          -11.81766799482747       -0.24642752115687        5.38554329197109
C          -11.44071115548898        1.02872088601282        5.50430610659261
C          -10.41688186348988        1.74861005284079        4.96286383767016
C           -9.63949834762983        1.45622466321928        3.92239690549469
C           -8.64566973467562        2.16667382422140        3.43703072092053
C           -8.18967651552618        3.33445804870964        3.88621426319506
C           -7.17857904493791        4.03614579932823        3.42430147071103
C           -6.39861901740173        3.75028762327880        2.43296654315955
C           -8.54982555870731        4.96249283772306       -2.32219785131468
C           -9.47584816473121        4.63578073446720       -1.49660635813468
C           -6.70132053254449       -1.89870289749677        4.28299343406792
C           -6.80616791782191       -0.73168168520909        3.78128213415633
C           -5.79119831539296        0.12061224376930        3.63604694895403
N           -4.54759979834995       -0.07862286415184        3.93304399030768
N           -3.50838646988622        0.70137554958303        3.82285263868486
C           -3.40165737860126        1.91760162774566        3.38491147471455
C           -2.31678234768464        2.69748525094811        3.28287217306707
C           -1.04027094948493        2.36864958137527        3.60140390632674
C            0.12108951785737        3.08155771759889        3.59623145331353
C            0.33576758971073        4.42672079750368        3.37278994398050
C           -0.58515304633111        5.46191712049488        3.18877009125310
C           -1.90739220952779        5.35474765012521        3.24619718895666
O           -5.33796738461061        7.26865620635108       -2.98353533230375
O           -4.12272883540590       -0.34915714558702        0.61916649443665
C           -1.22097492584639       -0.25475555902421        1.12956422415923
C            0.12170061271647       -0.13870462800607        1.41135838815562
H            1.88849198661587        1.03499626773799        1.16319880559993
H            0.76702392385654        2.75766006271791       -0.18288565749275
H           -1.63466467112927        2.54885915884896       -0.68671886508800
H           -7.77231747402759        0.61358297474885       -0.73133384719699
H          -10.16610005912555       -3.37131495483508        0.14006671189746
H          -13.67077262008080       -4.86505722939404       -1.77909608442773
H          -17.68930752155743       -2.92325926547904        0.88314936925444
H          -14.83604220586571        2.32740797465617        1.97649419597032
H          -14.75695831152385        4.72345470402321        2.51847682897828
H           -9.19709480520634        9.02637762793594        0.72434580360510
H           -9.53461672153336       10.39354244885806       -2.25215921101057
H           -8.38884085367856        1.76824826876197       -3.63907024838554
H          -10.78384541449378       -5.91886004237897        2.94788496393461
H          -14.40880462786493       -4.69052656689670        4.90488720853515
H          -14.01677451291173        1.00202369253687        9.25778285109535
H          -11.30514147104577        5.76117961013282        6.92894560923594
H           -8.85911284482173        8.90423041199496        8.78766016224977
H           -7.29401442236134        8.43348205931260        4.39534086714846
H           -6.96834810087734        9.06867939231240       -1.45758695701329
H           -6.36182167184973        2.18475327952801       -1.80677353431208
H           -6.36272350052770       -3.43887479799561        4.84302153316657
H            3.18476210097297       -0.97266835415602        5.19925194884241
H            1.00177133755724        2.48640127557831        3.78617795587445
H            1.37227782068244        4.73259811277010        3.35513035813450
H           -0.18000078300089        6.44794057531604        3.01246281343727
H           -2.57691272305135        6.15610335613374        3.12568188459969
H           -1.78946764027016       -1.09405382375078        1.49209482201102
H            0.61300067978807       -0.89241747525903        2.00407941537428
