47
 energy: -10.436865108214 gnorm: 0.000886759209 xtb: 6.5.0 (97a52f5)
C            1.60790773501370       -1.63963928419971       -0.22378716962261
C            1.05535418477958       -1.38736411894100       -1.46442314863603
C           -0.24631272882717       -0.94904618063770       -1.56367759607382
C           -1.01527897804287       -0.75567860511953       -0.42034856532634
C           -2.39273332906755       -0.28514334576760       -0.51205950695360
N           -3.03005453402463       -0.00961066600286       -1.65342891023991
N           -4.23382182477176        0.38600380779229       -1.36243083019655
C           -4.37145827623863        0.36602161237947       -0.03323282974060
C           -5.58138595060572        0.74809195327279        0.68338436328890
C           -6.70655494039949        1.20354726142815        0.00122778975748
C           -7.83833216040112        1.57097831571523        0.68712422199589
C           -7.88137777482626        1.49363735951272        2.07617094440003
N           -9.05775915971047        1.89815567347149        2.79489158475118
C           -9.72217607712439        1.15679701920699        3.79438137718040
C           -9.46861734044518       -0.11348565708469        4.31104007276128
C          -10.29573056915937       -0.60605224958330        5.29011051322596
C          -11.37663889645295        0.14246152690398        5.76459705641433
C          -11.64577142407135        1.39240451072149        5.26166710088393
C          -10.81446986294992        1.90574524485608        4.26466110931658
C          -10.82447659132317        3.15264386514388        3.53787962409153
C          -11.65559186982694        4.27244874233478        3.60343277571503
C          -11.38764293930605        5.34052934438843        2.78191022809747
C          -10.30341656821008        5.31519726951225        1.89986232497496
C           -9.47743394820189        4.22080158936698        1.82460418487838
C           -9.74017695723180        3.12353320743182        2.64404318504045
C           -6.75859728631592        1.03301366480374        2.75764352678720
C           -5.62593487040099        0.66751398497386        2.07188465588868
O           -3.21662803316873       -0.05974365920499        0.54914530776680
C           -0.44667579616992       -1.01246364792173        0.82235727418411
C            0.85557180242870       -1.45012105088521        0.91877117944397
H            2.62663875554668       -1.98244532327125       -0.14700101557019
H            1.64323133800713       -1.53534475052588       -2.35539839566217
H           -0.68371636231858       -0.74807796056633       -2.52594540446972
H           -6.67508551373662        1.26377383675587       -1.07241582104826
H           -8.71042692869709        1.91337246573360        0.15824047267259
H           -8.64182513250811       -0.68848852152030        3.93458105196288
H          -10.10978099271876       -1.58507029263996        5.69998090419645
H          -12.00882610776190       -0.26870168154145        6.53425936975050
H          -12.47788236528218        1.97299156029281        5.61846771034180
H          -12.48359029448197        4.28689037913028        4.28983486861278
H          -12.01993913488539        6.21234645058389        2.81946931219167
H          -10.11202417367982        6.16983797042670        1.27222909643506
H           -8.63428294433129        4.20012268031435        1.15773720101483
H           -6.78608521015541        0.98453499262883        3.83200268176056
H           -4.75522122481120        0.31709975402387        2.59876684072688
H           -1.04183055440869       -0.86079581463758        1.70650711053336
H            1.28743181125751       -1.64628323306847        1.88655217250257
