59
 energy: -12.990152303866 gnorm: 0.000371835034 xtb: 6.5.0 (97a52f5)
C            2.18698880349623       -2.53910383317217       -0.22855353615347
C            1.38140056638791       -3.33603929397402       -1.01940892257763
C            0.02129904648818       -3.12406921769948       -1.05363499476281
C           -0.55436310669617       -2.10963733700074       -0.29361057211485
C           -1.99256442713873       -1.87720660435283       -0.31537373345437
N           -2.86773260049423       -2.56493731724338       -1.05444473396037
N           -4.05707944753884       -2.09060856187329       -0.82466648536669
C           -3.94737920011441       -1.09764631426100        0.06356398897326
C           -5.05988930506612       -0.31395906127957        0.58067191051900
C           -6.36259341119340       -0.52801620427693        0.13351396375839
C           -7.40281325409245        0.21677356719078        0.62983720706610
C           -7.17610014879024        1.20158789609810        1.59350569034585
N           -8.26837822601694        1.98327829083689        2.12418134075133
C           -8.71255973741177        1.77387441200172        3.46152931584258
C           -8.16111994240161        0.76715453220664        4.24286528243665
C           -8.60360175853147        0.54078740473310        5.52960734844905
C           -9.61282478560630        1.31883575664273        6.05532068218452
C          -10.17542803479917        2.32170419464896        5.29330034787635
C           -9.73967677875616        2.56900367831761        3.99828352815959
N          -10.33650907261120        3.59552594308638        3.21126529967749
C          -11.34409072780130        4.45517894364518        3.78825591373530
C          -12.67364696305924        4.37244276126079        3.37700569026924
C          -13.63066760400265        5.18941697671975        3.93445405823152
C          -13.27999310033509        6.10134880707709        4.91148667085454
C          -11.96654123039591        6.19464654735709        5.32996568031148
C          -11.00591273995872        5.38068650377234        4.77458488291972
C           -9.91113064267542        3.78798981196494        1.86506398473367
C          -10.47204095550780        4.78393864630718        1.07666829171504
C          -10.04851608136621        4.99026390220521       -0.21986116834108
C           -9.04756025252293        4.20383756649019       -0.74873960677365
C           -8.47249068495202        3.21413614909997        0.02092056945848
C           -8.88888408964391        2.98737676720702        1.32596914762195
C           -5.87038569296378        1.41321321788691        2.04029473247809
C           -4.83170031701322        0.66884890037075        1.54093393828638
O           -2.64224517269196       -0.92752905951296        0.41558485395081
C            0.26828298387889       -1.31443409688933        0.49823045272351
C            1.62822835801220       -1.52776447873263        0.52917217519600
H            3.25136925365998       -2.70585321084386       -0.20319871712449
H            1.81799839505585       -4.12464456677474       -1.61006285902996
H           -0.61337152114231       -3.74005765095049       -1.66622986858428
H           -6.54023254968186       -1.28816603326691       -0.60670142279763
H           -8.40931625301033        0.04812321441713        0.28915595290647
H           -7.38195507329798        0.15303130810662        3.82825534010606
H           -8.16404788545787       -0.24536722715881        6.12118043978704
H           -9.96370145959021        1.14235230394143        7.05882677708619
H          -10.96948178735512        2.92179921140426        5.69978590627146
H          -12.93855692265540        3.65428520058876        2.62086856718151
H          -14.65553810646907        5.11644667376925        3.60944271650944
H          -14.03099017822068        6.73943890078084        5.34752932103053
H          -11.69358645527467        6.90662221032216        6.09151088565491
H           -9.97945344394702        5.44999722818803        5.08970056836978
H          -11.24428668565833        5.40575990742280        1.49205807136067
H          -10.49752137507183        5.76705124942504       -0.81678001875374
H           -8.71217765232240        4.36417470436839       -1.76018984846440
H           -7.68345461780117        2.60866070235250       -0.38743155762397
H           -5.69357226281551        2.17460874982313        2.77960146645242
H           -3.82505816717203        0.83330497546829        1.88463052363359
H           -0.17743001641198       -0.52925400388307        1.08432633363034
H            2.25777449852247       -0.90445364429554        1.14283822728881
