48
 energy: -10.557264244347 gnorm: 0.000647540175 xtb: 6.5.0 (97a52f5)
C            1.94964430831185       -1.20651625293996        0.44176936967010
C            1.37757199278059       -1.72644881069175       -0.70298367140185
C            0.01636642252086       -1.64487702014790       -0.89161566213328
C           -0.79419250881956       -1.03927621630902        0.06409239298208
C           -2.23507413915255       -0.93988472189299       -0.12676785486525
N           -2.90096134383966       -1.42303653222846       -1.17878194716737
N           -4.16293136110855       -1.15532447213969       -1.02132058710087
C           -4.31024002696482       -0.49580384993462        0.13134446852120
C           -5.57852367495238       -0.01294389719441        0.65722909023312
C           -6.77105105572608       -0.22702887967104       -0.03135579341920
C           -7.96110226304517        0.23241886009734        0.47321236987088
C           -8.00181844314129        0.92529167769796        1.68581876885596
N           -9.25154985142334        1.41202687226659        2.21553939439691
C           -9.76751922415697        0.90992847131350        3.44460005887159
C           -9.10390260866943       -0.07578329180610        4.15733594426617
C           -9.61199808765795       -0.56167257273375        5.34617963346294
C          -10.80003752761503       -0.06917474799529        5.83811229028113
C          -11.48408687322231        0.90375501095234        5.13855255769444
C          -10.99129553076913        1.40387532370781        3.93943202602735
O          -11.72866116682943        2.37296869700612        3.26092357565776
C          -11.21388767116708        2.87009300585558        2.06477048440920
C          -11.92338194972730        3.85332077176175        1.38606647822978
C          -11.44531139997148        4.39082966848072        0.20863077929045
C          -10.24537019432325        3.95576139258407       -0.30777248894052
C           -9.52647468366077        2.97688263147488        0.35009374312599
C           -9.99318492169572        2.41463797678680        1.52734003213643
C           -6.80380633905352        1.13837220412747        2.37234639177906
C           -5.61526984777286        0.67614400878825        1.86691662911353
O           -3.10066324521838       -0.33942400988433        0.73721734909692
C           -0.20536606980334       -0.52039285354684        1.21245229593081
C            1.15611085049970       -0.60431052517376        1.39882017845920
H            3.01532117920943       -1.27057823061429        0.58810619965285
H            1.99757403218716       -2.19600340932262       -1.44871426594337
H           -0.43755354239216       -2.04600905615489       -1.78050577548224
H           -6.74347139892420       -0.76071992576478       -0.96503833062658
H           -8.88243275105481        0.05717444431948       -0.05405776625370
H           -8.18168056682623       -0.46935679257511        3.77017479457756
H           -9.07884176790740       -1.32482342600993        5.88856270010902
H          -11.19735585337918       -0.44447833870440        6.76683679593366
H          -12.41663977173670        1.29086560217783        5.50852567353613
H          -12.85521134761891        4.19080163014773        1.80325709070526
H          -12.00837518772131        5.15387706989768       -0.30319701290984
H           -9.86733331622992        4.37822298253027       -1.22406050220925
H           -8.58477753834942        2.64639074384190       -0.04914570408675
H           -6.82837599172286        1.68072184082529        3.30119008640381
H           -4.69288787063826        0.84133043869826        2.39648791611932
H           -0.83336264524248       -0.05249487303780        1.95076371540273
H            1.60276277374046       -0.19940861883501        2.29178608769835
