70
 energy: -15.429902143779 gnorm: 0.000570440802 xtb: 6.5.0 (97a52f5)
C            1.68751165372064       -1.70723166809770       -0.03828014787092
C            1.38513808602724       -1.66385395962531       -1.38536682845087
C            0.09504860053731       -1.41189733242443       -1.79489803107223
C           -0.92434433699591       -1.19571695681364       -0.86738970377020
C           -2.27789434859402       -0.93411699317972       -1.34041726963824
N           -2.62440997152092       -0.95156102709147       -2.62641937279956
N           -3.89633686075195       -0.68562015353902       -2.73526250932692
C           -4.41058887355411       -0.48533835190446       -1.52295441223812
C           -5.81454467404900       -0.17312628209624       -1.28500282623254
C           -6.31289346329767        0.13593673239866       -0.01873388933615
C           -7.64508999042269        0.42651944310180        0.16721136585761
C           -8.51312332141083        0.41629412468256       -0.90701100558840
C           -8.04052778076354        0.11604363607368       -2.16972845397956
C           -6.70760701714881       -0.17373214396269       -2.35682157504626
N           -3.40141448639383       -0.63429143204517       -0.57735385785300
C           -3.49929336824597       -0.50748522546172        0.85668661402085
C           -3.87292919216409       -1.59611929431591        1.63678957572803
C           -3.97546184746880       -1.47170513045857        3.00004325178589
C           -3.70943609006776       -0.25214852006828        3.62240305899667
N           -3.84231137765483       -0.10740871762819        5.05295709906814
C           -2.68608468943936        0.07787826015376        5.86213239925726
C           -1.41347557526492        0.00649586794638        5.31033787552645
C           -0.28895070599021        0.17306753756451        6.09135805707731
C           -0.42033551518800        0.40930993780042        7.44359939547885
C           -1.67595645645386        0.47903850627048        8.01045423191063
C           -2.82066291368915        0.32014763729070        7.24017392342571
N           -4.11437372980650        0.38220449067181        7.83305165006680
C           -4.25334299077459        0.69022939549308        9.23803285558095
C           -4.67473158310731       -0.28275197097930       10.14340200815835
C           -4.80380368346292        0.01522019299691       11.48088173291416
C           -4.51472913475169        1.28646401357828       11.93917604426018
C           -4.09519385868669        2.26113695340085       11.05406331767015
C           -3.96530256860186        1.96808195559651        9.71569689115514
C           -5.27030596883149        0.17730764836562        7.02601489569305
C           -6.54442972822923        0.24745561662026        7.57434573608845
C           -7.66780375930032        0.07440740415884        6.79279776856985
C           -7.53466423770436       -0.16716169959281        5.44180479228228
C           -6.27837765874554       -0.23412240032552        4.87692587821232
C           -5.13514066823565       -0.06798605681459        5.64830166092463
C           -3.32964553214875        0.83496766209570        2.83577294447839
C           -3.22626007140428        0.70841574406356        1.47318856390188
C           -0.59687424607617       -1.24562225276952        0.48815514480537
C            0.69265565449911       -1.49833451821585        0.89672146612829
H            2.69730790027628       -1.90444810151565        0.28258301683464
H            2.15999772992434       -1.82747105058874       -2.11636035669535
H           -0.14483090095264       -1.37746669318645       -2.84315741165427
H           -5.64648345323978        0.15170589859804        0.82190588418718
H           -8.01201431473953        0.66386931436485        1.15243779966764
H           -9.55653534217467        0.64262918270710       -0.75992475166762
H           -8.71603872860175        0.10849396529662       -3.00949844181467
H           -6.33539599298898       -0.40829053379237       -3.33864944404276
H           -4.08215778255044       -2.53410756823532        1.15291372301210
H           -4.26312839973287       -2.31203942787659        3.60729945125575
H           -1.31208997206748       -0.18728141769955        4.25748019465477
H            0.69075996064911        0.11529222000699        5.64607661259019
H            0.45638877259812        0.53583223530918        8.05742435772045
H           -1.77800217895318        0.65472493134960        9.06634138557567
H           -4.89141189464679       -1.27134642210850        9.77795327518229
H           -5.12981748521474       -0.74478110594978       12.17201697402824
H           -4.61646663772412        1.51793029407759       12.98682159733354
H           -3.86991795316721        3.25247559462482       11.41190813930427
H           -3.64286165439928        2.72108410887788        9.01790296397862
H           -6.64943378543477        0.44737468519579        8.62546694948541
H           -8.64799562869630        0.13299975616685        7.23687470692099
H           -8.41043905812559       -0.29902049195666        4.82775023290055
H           -6.17492811668341       -0.41078213464248        3.82148071924536
H           -3.12780562426425        1.77644032127803        3.31594433440756
H           -2.93727163880935        1.54642394367299        0.86338704797049
H           -1.36266170739526       -1.08858626949480        1.22292011504503
H            0.92688216871963       -1.53402590727760        1.94813060876747
