35
 energy: -7.510688461342 gnorm: 0.000995811016 xtb: 6.5.0 (97a52f5)
C            1.08262069877009       -0.93234941695939       -1.16287981394257
C            0.48221777599464        0.28778484359836       -1.40344285695919
C           -0.87865964706610        0.42861133989876       -1.24776939170951
C           -1.66886759266554       -0.65049023518256       -0.85774840409843
C           -3.10794748505731       -0.45232373066799       -0.69092122528903
O           -3.66832090959481        0.76698974718445       -0.41372062156270
C           -5.02267198479622        0.59978012276288       -0.29182044987291
C           -5.93801593439307        1.69522531990315        0.02660884551051
C           -7.14261530772002        1.49421335129635        0.70094369142920
C           -7.96684050067121        2.55687479793554        0.99752904400080
C           -7.60440929009614        3.83939424894369        0.63491018319502
C           -6.40763311458080        4.05801948589302       -0.01847163438120
C           -5.58078523237988        2.99774656446058       -0.31522533978650
C           -5.34795415466818       -0.75858472746216       -0.53416486408544
C           -6.57161709369880       -1.46466004832390       -0.60528032431918
C           -6.54923180547523       -2.79044825057608       -0.91571942855870
C           -5.33380767110874       -3.45733415769932       -1.18222390264473
C           -4.14312292517169       -2.79833673737757       -1.13253884936986
C           -4.13427817846625       -1.42568895123806       -0.78962696596781
C           -1.04337191093447       -1.87058450599859       -0.60050638053817
C            0.31798860659877       -2.00829746042262       -0.75662334072917
H            2.14782244230508       -1.04247929038440       -1.28441393201319
H            1.07882004163670        1.13108952781031       -1.71064822789895
H           -1.35333781017026        1.37808520209099       -1.42677724445452
H           -7.40735702592352        0.50453603507640        1.02669766069356
H           -8.89434348222018        2.38847542453930        1.52007662322103
H           -8.25090938077731        4.66950044133523        0.86825965107699
H           -6.11978631766508        5.05925670070816       -0.29460631317516
H           -4.64337107608270        3.16077897783384       -0.81875629332184
H           -7.50265349594269       -0.95111658628817       -0.45043406266292
H           -7.47440178985235       -3.33970288109440       -0.97618035358124
H           -5.35381772202059       -4.50266290193579       -1.44358306147289
H           -3.22666014426665       -3.30007782619673       -1.38318185189564
H           -1.62572401207162       -2.69788312675185       -0.23776464729921
H            0.78922343022576       -2.95639129670724       -0.55462591753405
