62
 energy: -12.105044630751 gnorm: 0.000451797166 xtb: 6.5.0 (97a52f5)
C            0.47392283171418       -0.26806359277816        0.36418475739042
C            2.01297604991736       -0.32479435726711        0.40192625203568
C            2.56007737393027        0.99912452662327       -0.16668873928165
C            2.49040202948037       -0.46109434633761        1.86001423574438
C            2.50002625606438       -1.53857442375543       -0.40632760499058
C            3.36241177039801       -1.41223893690790       -1.50359298831290
C            3.78826395186202       -2.51050108265441       -2.19579698456019
C            3.37394777576705       -3.80243779780737       -1.82772555275625
C            3.82035402966505       -4.94417258254720       -2.54056057366102
C            3.43884362897324       -6.21775328921489       -2.20954506746646
C            3.91666362985273       -7.38191145294406       -2.96205254698689
C            4.77240606453309       -7.25937360994820       -4.04392096674911
C            5.22285180202269       -8.37052983672698       -4.75197463338466
C            4.82758278366133       -9.62486111504827       -4.39402592837531
C            3.95545988613541       -9.81463973857901       -3.30209472077526
C            3.53424718109971      -11.10566315687830       -2.92251760577625
C            2.68805384643718      -11.27272437499644       -1.86737653182977
C            2.22831585152110      -10.17188992265167       -1.14911435197480
C            2.60690224406653       -8.87962048787138       -1.47243473304829
C            2.12758086038325       -7.71421092949702       -0.71974876723177
C            1.26711185711849       -7.85571446527763        0.36099804792498
C            0.79697957547180       -6.76955099593511        1.09230182397125
C           -0.15442592436668       -6.92988091502500        2.28972951129861
C            0.52771552667017       -6.38184172491121        3.55711564721730
C           -1.45230534626276       -6.14530149285234        2.01937911404096
C           -0.52412019066739       -8.40574547838781        2.53638024846630
C            1.21315061026113       -5.51097212102130        0.72079807878940
C            2.08019950778132       -5.29465061939964       -0.35783213302690
C            2.50440990107056       -3.95717781154184       -0.73080225034106
C            2.09035451710751       -2.80280946431482       -0.04487387887262
C            2.54616400100039       -6.41040450040919       -1.09287204580267
C            3.49172308674188       -8.68749263104204       -2.57502154747114
H            0.10249124684325        0.59580152497041        0.91501531547205
H            0.03172341108889       -1.15905588210958        0.80788921854217
H            0.11651772339320       -0.19241636993156       -0.66246035277597
H            2.20124162820206        1.84727203782275        0.41619627714185
H            2.23648778677442        1.14720763153168       -1.19667805720696
H            3.64923810925911        1.01870146694803       -0.13829787646822
H            2.17679145950345        0.39648905818648        2.45488790041840
H            3.57751132672923       -0.52330586997688        1.90474537276267
H            2.08440951740227       -1.35697008372398        2.32812346835696
H            3.69871484443379       -0.43766382010308       -1.81001448595706
H            4.45251837513872       -2.39671595694909       -3.03556113398854
H            4.48312067634787       -4.77665312455308       -3.36740699630910
H            5.10635423689346       -6.28755154478288       -4.35763969880136
H            5.88972302064872       -8.23595250349612       -5.58835360272051
H            5.17738063459139      -10.48406971506484       -4.94048430007681
H            3.88896534714561      -11.95701334109986       -3.47807627096639
H            2.37147081974821      -12.26396350814662       -1.58532752303980
H            1.56201731484044      -10.34720692558951       -0.32480709676089
H            0.95110443330510       -8.83813866039040        0.64942726225449
H            0.75729821658984       -5.32170211846238        3.45707207886447
H            1.46139133379177       -6.90966441215722        3.75017541304338
H           -0.11476922084218       -6.50256348818363        4.42911742718097
H           -1.25571909835817       -5.08085416084926        1.89757433671930
H           -2.15612440519905       -6.26081303218563        2.84344169995192
H           -1.93567262005911       -6.50256051829444        1.11025400323419
H            0.36094597795788       -9.00036527038800        2.76172528563231
H           -1.02104919315177       -8.83659603163993        1.66734553320579
H           -1.20459813368242       -8.49669676457961        3.38300337873563
H            0.85545000041444       -4.67151866195057        1.28463643625945
H            1.43237826083594       -2.90113722693880        0.79651942308720
