90
 energy: -20.051179372630 gnorm: 0.000701022075 xtb: 6.5.0 (97a52f5)
C           -0.48142184623019        0.15380402801302        2.26117100917492
C           -1.73694650767351        0.52241330506730        2.70391106111552
C           -2.82453324392831        0.41288634906458        1.86558209023687
C           -2.67011849942886       -0.07089204144272        0.57228001460152
N           -3.80693515630526       -0.19196239645555       -0.30564006933216
C           -4.26170302970607       -1.32117395826141       -1.02006917227560
C           -3.72980392113879       -2.67392789106426       -0.85970384855435
C           -3.81547896247221       -3.58844570166996       -1.90766681489437
C           -3.32683018127080       -4.86512354376211       -1.77100829702912
C           -2.74440460761610       -5.28588901263147       -0.57385643946316
C           -2.22188410321344       -6.66206912480866       -0.42835731285486
C           -1.48519890143273       -7.25892124832893       -1.45214106760557
C           -1.00496074547995       -8.54015160097924       -1.32291024973217
C           -1.24768376574457       -9.28503746435109       -0.16787014980977
C           -0.74717164160039      -10.67108187095742       -0.04196028508628
C            0.53167588428641      -11.01496004815699       -0.48323469207854
C            0.98907893089344      -12.30588465306835       -0.38486856660499
C            0.18872305267162      -13.31354914341028        0.15254693009661
C            0.63117815717320      -14.70321473521618        0.23843761970789
N           -0.21100297775385      -15.71168466072663        0.41914595800151
C            0.53979060246538      -16.83516243205591        0.44605490194431
C            0.10455837439715      -18.20082789180018        0.60536409139710
C           -1.25083320641551      -18.50826305662351        0.74267671512166
C           -1.66047375271350      -19.80768943808711        0.88067759938406
C           -0.72287215262313      -20.83008508890229        0.88453711458502
C            0.61426779846096      -20.54871586278904        0.75293324410668
C            1.07203979603859      -19.23129040063321        0.61088139836068
C            2.49540617342753      -18.90307647315104        0.46971448360160
C            3.49181600051365      -19.88905433841850        0.48929670004593
C            4.81928235879319      -19.56755518536831        0.35731402341992
C            5.20781880400320      -18.24555075755388        0.20136587832445
C            4.26295311435923      -17.25600802228307        0.17929970924433
C            2.90289016393198      -17.55591158572630        0.31012551948830
C            1.89408389441572      -16.52874525204465        0.29291159981558
N            1.96238411861813      -15.15382711426355        0.15160356025322
C            3.16293591431453      -14.36020344114555        0.02615007671368
C            3.77320207555514      -14.19328529696014       -1.21060725551659
C            4.92280693093174      -13.44312119602816       -1.32397681458367
C            5.47644997048433      -12.85232904151341       -0.20518363160329
C            4.87744428884108      -13.01283649946943        1.02882236349940
C            3.72762921190073      -13.76225984310956        1.14486670164976
C           -1.08976516806463      -12.97034801388965        0.59065657533390
C           -1.54672534405649      -11.67767144574691        0.50236016042656
C           -1.98487517988544       -8.68831083679046        0.85606569042482
C           -2.45743993255926       -7.40327697414398        0.73055937285625
C           -2.67244866215917       -4.37322967293505        0.47996471443180
C           -3.15305678765358       -3.09425512858303        0.33842979834077
N           -5.23633898359357       -1.01714709268589       -1.86030716198084
C           -5.46933509349491        0.31963667303187       -1.71348731067657
C           -6.38951945530930        1.15680007011524       -2.36201602246138
C           -6.40667488976320        2.49129265498824       -2.04739441031051
C           -5.52451215904797        3.02580473265026       -1.09790244093980
C           -4.61799325620803        2.22772927966910       -0.44869861935920
C           -4.59345156769429        0.86490934486371       -0.75245478491668
C           -1.40144955353033       -0.43439417149521        0.13612833589249
C           -0.31544182765719       -0.32398181440466        0.97595689136778
H            0.36872983632464        0.23967173665325        2.91806351687000
H           -1.86600527165889        0.89624173240916        3.70647872724613
H           -3.80759555959632        0.69254307086892        2.20222373552583
H           -4.26953595501343       -3.27557117360488       -2.83156023731169
H           -3.40469389466291       -5.56232647961776       -2.58721457716325
H           -1.28593810206100       -6.69673052104230       -2.34815557042086
H           -0.44729983636155       -8.98936517740050       -2.12642534314869
H            1.16569698643995      -10.24933524237820       -0.89590288369779
H            1.97327381123883      -12.54944243823060       -0.73713240473688
H           -1.96734975968075      -17.70565852004269        0.73525879787220
H           -2.70855614632627      -20.03663966310243        0.98405863381587
H           -1.04897442901622      -21.85195965483086        0.99031377749668
H            1.31764632927454      -21.36100264754786        0.75681548054806
H            3.21886169280069      -20.92097317935892        0.61269633129829
H            5.56566266600591      -20.34501911656262        0.37551782470542
H            6.25201318783431      -17.99909382967052        0.09797410698799
H            4.56310608775230      -16.23195064899030        0.06114386130713
H            3.33435561185885      -14.66091893408168       -2.07475058276644
H            5.39123754230073      -13.31820318825929       -2.28653937812555
H            6.37633793433154      -12.26594624807914       -0.29474000709976
H            5.30964175913112      -12.55194912525054        1.90193361996431
H            3.25211673582849      -13.89604230787252        2.10081781304380
H           -1.71870862443283      -13.74188592984876        0.99899648111076
H           -2.54116240678225      -11.43376193916344        0.83392959153037
H           -2.17291362022037       -9.24560762654392        1.75751508713792
H           -3.03262672606020       -6.96041604693327        1.52526303040305
H           -2.21915270368767       -4.67940911849216        1.40687747788504
H           -3.09233384362062       -2.40205317810774        1.15892693520113
H           -7.06081571820357        0.74166544506149       -3.09217833655589
H           -7.10871568842207        3.14360329364497       -2.54035370098921
H           -5.56078005083405        4.07965530500756       -0.87609466566904
H           -3.93404116233957        2.62653915392723        0.27886492656879
H           -1.28413894918051       -0.80588382661005       -0.86695592316644
H            0.66404771403617       -0.61076794949228        0.62962736914973
