113
 energy: -25.272644500458 gnorm: 0.000746862403 xtb: 6.5.0 (97a52f5)
C            0.06729687831048        1.54647620463204        0.62752234338485
C           -1.05602078261752        1.19426869831439        1.34981627307413
C           -2.14360951634480        0.64371738166340        0.70896447160418
C           -2.11894181044295        0.43487472234784       -0.66489557798642
N           -3.24762465996395       -0.16756754824901       -1.33346081733172
C           -3.66925781750035       -1.51531943522064       -1.37296705651644
C           -2.96028848004450       -2.65007433059694       -0.78840973588483
C           -3.56778481254204       -3.90310737187094       -0.79370665615055
C           -2.93971095352210       -4.99672061123348       -0.25168868613230
C           -1.66991303405324       -4.88711897352897        0.32028916363173
C           -1.01840032301243       -6.07449588954334        0.90971676100677
C            0.36531773182631       -6.28881541215044        0.82968794417794
C            0.94248640914107       -7.45957971889093        1.27978977977056
C            0.13218708132507       -8.44983676808993        1.82492290244841
C           -1.23925318911049       -8.22862305452678        1.94171092537085
C           -1.80983883691256       -7.06013069534039        1.49798901924531
C           -1.94096976761014       -9.49849545200189        2.42699090769226
C           -0.76891129006845      -10.47249264497301        2.59353029937867
C           -0.76006721607630      -11.78788541727270        3.00709327664278
C            0.44744933410961      -12.45835060986158        3.07832963572992
C            1.63170967148734      -11.82212435072454        2.73993976347296
C            1.63222789119275      -10.50595816834090        2.32408205337043
C            0.42449551648152       -9.82545161667049        2.25244214985805
C           -2.66897200130031       -9.21196399543935        3.74116084607275
C           -2.01617585096191       -9.34531087090633        4.95403688675507
C           -2.64677668356651       -9.03258109393442        6.13981676005279
C           -3.94716863595078       -8.57531950400943        6.12414252221307
C           -4.61014005757986       -8.42584317678845        4.92706602907095
C           -3.98715517588789       -8.72897812568390        3.71522537758255
C           -4.68431552526854       -8.57925206864454        2.42701635040069
C           -5.81557809289780       -7.80113106150844        2.28878813622362
C           -6.47186625404765       -7.68652443241462        1.07027954453515
C           -6.05770925853809       -8.38530939623266       -0.04660693693247
C           -6.70437912241317       -8.13461446482641       -1.35876580372955
C           -6.59536899552698       -6.87636460541481       -1.95575141922751
C           -7.12044604944133       -6.64073257687884       -3.20054488844892
C           -7.77841887206254       -7.65114121936387       -3.90115438522170
C           -8.30727615383112       -7.41574909512580       -5.24420538577309
N           -9.36521177689412       -8.03861888942432       -5.73561839770560
C           -9.55001700407173       -7.54547007425913       -6.99548337508359
C          -10.51935853620681       -7.86033577666356       -7.95911303565097
C          -10.47143131528272       -7.23192926601784       -9.17721825024328
C           -9.47474044663767       -6.29166605106563       -9.47100622524875
C           -8.51665668811904       -5.96629929728087       -8.54557015073390
C           -8.55742312274199       -6.59002967148871       -7.29692030839919
N           -7.74749221777085       -6.50741005887574       -6.16825366571282
C           -6.51410974840289       -5.76736033138723       -6.07607707503863
C           -6.48835969786116       -4.40072416245669       -6.32653239183916
C           -5.30835464450499       -3.69589950070943       -6.23606094777589
C           -4.13840822894032       -4.34448668503383       -5.89202939447300
C           -4.15062601676537       -5.70284449803714       -5.64334520900955
C           -5.32843986584032       -6.41019569741189       -5.73840996233693
C           -7.92030271655218       -8.89785392683186       -3.29193305127289
C           -7.38959680713483       -9.13847268021781       -2.04783765749164
C           -4.90739394700449       -9.23280085463866        0.06059907528920
C           -4.41937014814567       -9.97649599252253       -1.03411838670160
C           -3.25474208980105      -10.67820534274223       -0.94141709688859
C           -2.48847039085491      -10.61998138814548        0.22572809973152
C           -2.91681305902763       -9.91126362468972        1.31944488113945
C           -4.18385276778166       -9.26590608874568        1.27745682141757
C           -1.05413464223892       -3.63535525961939        0.31272578273701
C           -1.68654014019217       -2.54258067803641       -0.23031314797234
N           -4.81333174688502       -1.65285070070887       -2.02178857417701
C           -5.17787327065484       -0.40613383967408       -2.43926651057196
C           -6.29968651688109        0.01615255886900       -3.16775065279249
C           -6.43723544606513        1.34940942424409       -3.45700897655752
C           -5.48275112412327        2.28668724666887       -3.03742898628287
C           -4.37815835866251        1.89814851224535       -2.32414560245204
C           -4.22197492737474        0.54297047791794       -2.02653121469665
C           -0.98742126055302        0.80121892127512       -1.38333515573454
C            0.09908232370145        1.35071892263051       -0.73953524723424
H            0.91894763792254        1.97479918805068        1.13029836196365
H           -1.08121655784499        1.34842022280930        2.41622639006584
H           -3.02262009003976        0.36040486713582        1.26130154853127
H           -4.54540422237646       -3.99933158835616       -1.23214783880068
H           -3.42498623018750       -5.95696880981298       -0.27775968089996
H            0.98077351998071       -5.53705437475855        0.36743119957363
H            2.00015671508264       -7.62986628969310        1.18192481882346
H           -2.87310866413766       -6.93079117109742        1.57232993336936
H           -1.68493031907607      -12.27269760136879        3.26658532668761
H            0.46689167350346      -13.48655541225290        3.40049289916113
H            2.56270752192006      -12.36165801063396        2.80028667462482
H            2.54624406340152      -10.00648997458041        2.05507919818572
H           -0.99699898761778       -9.69033432534077        4.96353723019518
H           -2.12384958439658       -9.14395238325710        7.07564243387159
H           -4.44437960983031       -8.33473368957244        7.04975263835231
H           -5.63107547461830       -8.08801597450377        4.92914255275018
H           -6.17932427976762       -7.24079471059644        3.13145836871807
H           -7.32325964225691       -7.03346055842947        0.98200500157703
H           -6.06804691070702       -6.09739336872002       -1.43283221421555
H           -7.02134473375095       -5.67019977184628       -3.65328250087378
H          -11.27842432367855       -8.58667465452042       -7.73060627482922
H          -11.21115457792756       -7.46672902464062       -9.92485211584683
H           -9.46141042973860       -5.81933490336615      -10.43947215855424
H           -7.74291830457887       -5.25204529387112       -8.76273184635272
H           -7.40626391920081       -3.90121721240494       -6.58289398385972
H           -5.29845321595823       -2.63596106838154       -6.43077328917391
H           -3.21712735192228       -3.79045045265655       -5.81523986427413
H           -3.23850995148450       -6.20970997414963       -5.37360769843459
H           -5.34836796344856       -7.46876857851937       -5.54628490420456
H           -8.43981289089331       -9.67663908160241       -3.82223176093301
H           -7.49175646055764      -10.10759168209033       -1.59067938102675
H           -4.97346747861043       -9.97295867328639       -1.95576112514448
H           -2.89397700197952      -11.23848623295119       -1.78836037637643
H           -1.51526750392382      -11.07910426786306        0.24671930934246
H           -0.07962387939610       -3.52770570674434        0.75613373326046
H           -1.19370536557022       -1.58945134875355       -0.22679993572138
H           -7.03085612311560       -0.70659534913791       -3.48260217573564
H           -7.29531997186640        1.68487333436358       -4.01598054257192
H           -5.62094844582527        3.32764894142290       -3.27910397103826
H           -3.63916274565239        2.60647604798376       -1.99469542076289
H           -0.97291383544045        0.64012308918157       -2.44710988377119
H            0.97547096735469        1.62670685094666       -1.30291745920578
