113
 energy: -22.768104514187 gnorm: 0.001264494924 xtb: 6.5.0 (97a52f5)
C           -1.95199716973639       -0.05379075235265        3.04146102892597
C           -3.31681052676737        0.06442415513094        3.21753772416308
C           -4.18045455968007       -0.39813087007262        2.24923150606811
C           -3.68928104294063       -0.98595973425594        1.09002796215168
N           -4.59387972520467       -1.49227459126405        0.08726916785719
C           -4.71540466013440       -2.79475893132476       -0.44630753310508
C           -3.98191324936973       -3.96556840694181        0.02680514708409
C           -3.89746716019583       -5.11029873039498       -0.76435177827787
C           -3.21164901266951       -6.22090170275821       -0.33215491042306
C           -2.58109541561306       -6.23207455500475        0.91307691888773
C           -1.82197366896578       -7.40465440196946        1.38832264422382
C           -2.21735408962949       -8.70987429660801        1.08861966591034
C           -1.49215710048188       -9.77982405076828        1.56122568422663
C           -0.39636824435403       -9.56817610019321        2.32574139443759
C            0.04409980733141       -8.31560075517658        2.62585093494750
C           -0.67410844803171       -7.23253184522214        2.16225112393971
C            1.31654677047757       -8.15955286009526        3.41844271437790
C            2.03107641011264       -9.30540144628427        4.08290069851026
C            1.61127708439662      -10.62302476942214        4.14819823216114
C            2.32568600071358      -11.54205479129762        4.89271859359816
C            3.45371872664959      -11.14046458258056        5.58143343579446
C            3.85253542653058       -9.82275012293591        5.52448913245181
C            3.14004090302592       -8.93624383749456        4.79456481152526
C            1.46172516829627       -6.84069552287905        4.08701748409683
C            2.01614284499319       -5.75727146871047        3.42564035001056
C            2.12668606814787       -4.53531814567547        4.06263629344901
C            1.69721526172878       -4.40188802856036        5.36911179615601
C            1.15476588603949       -5.48869100085120        6.01498773098578
C            1.03803465546213       -6.66872211967920        5.36703018121902
C           -5.25691489366951       -7.83251228821639        3.67413842530001
C           -4.25616720825822       -8.62765290944259        4.08995423406934
C           -3.17551677475162       -8.20940495647840        4.79814598659682
C           -2.19366727556712       -8.94753300765582        5.27144522302811
C           -1.99905183230556      -10.29781772957376        5.08982668949791
C           -1.54002899041809      -11.20604150673894        5.98662564360078
C           -1.24351439252259      -10.91957640923560        7.26464239310967
C           -0.85395737403165      -11.78922675565918        8.19286886433523
N           -0.57226443661131      -11.56642207207163        9.49044327351288
C           -0.40728064155543      -10.50270972062359       10.05181116751377
C           -0.19166875870284      -10.66670161634568       11.34074435983465
C            0.08745949898999       -9.77409691363588       12.33709275440560
C            0.28085085534920       -8.41183437130797       12.28473139873617
C            0.25899261915424       -7.51370185001340       11.20696102670121
C            0.00572108769548       -7.77779003110781        9.91721860322198
N            0.01617719931493       -6.99531324706310        8.86141174560156
C            0.48537165040328       -5.84294035595985        8.71703381794613
C            1.10166747285240       -5.01725995986732        9.57595836084771
C            2.26283652969940       -5.09742460882438       10.26522092931294
C            3.30854201161571       -6.00080200907825       10.14828478613460
C            3.54612169410258       -6.95881081819105        9.17413011807905
C            2.82773008780476       -7.13937798296862        8.06327778121388
C           -6.20337059400985      -10.78684952817575        7.88524374210648
C           -7.98799629371577       -5.98447247318041        7.39554439753879
C           -7.14481494980565       -5.08409924585796        7.00327436779317
C           -1.96924447034030       -4.36809256364820        5.12095472838439
C           -2.68759236128945       -3.26348811644618        4.99308624392068
C           -4.00074610560598       -3.19255911795901        4.60541802122106
C           -4.86448744693273       -4.24160505892252        4.23877222137862
C           -4.57906692888419       -5.54311595231945        4.18446684400665
C           -5.43257788383416       -6.50115111252960        3.77734407418708
C           -2.67770123442114       -5.09028324726307        1.70684483656448
C           -3.36880213765964       -3.98642396777531        1.27661796987043
N           -5.58717501322102       -2.84282119711299       -1.43883505470530
C           -6.08093492902340       -1.57873316420123       -1.58227388646569
C           -7.02744693852709       -1.07119258006789       -2.48456144404813
C           -7.34587971364742        0.26143623674526       -2.43034070723828
C           -6.74301198977151        1.11540617105397       -1.49622066975065
C           -5.81546758074883        0.64295655177550       -0.60389178352420
C           -5.48486446350973       -0.71325042427627       -0.64304910282571
C           -2.31367869126574       -1.08780466354985        0.91811340522019
C           -1.45209300191859       -0.62979425454930        1.89010216166220
H           -1.27734770636861        0.30486190245521        3.80157432623191
H           -3.70641321732977        0.51678186018136        4.11482845783381
H           -5.24547947049530       -0.31978344552403        2.38116212332102
H           -4.37677270249403       -5.10741788813120       -1.72754373742808
H           -3.14077925153386       -7.08874165978211       -0.96438970142183
H           -3.10599913524107       -8.87347343764800        0.50421419610983
H           -1.79904639234570      -10.78974598470234        1.34692441602281
H           -0.33470998452381       -6.23893706592360        2.38931574003278
H            0.71779741673701      -10.93293943291675        3.63984654939836
H            1.99943770606945      -12.56801658975145        4.94138859766657
H            4.01703982469057      -11.85295144480604        6.16173411739284
H            4.72878528323619       -9.48976639551221        6.05534232927583
H            2.35565115103266       -5.87802048706804        2.41103307821539
H            2.55447826545434       -3.69263718985666        3.54482004397503
H            1.79657368337669       -3.45918494294408        5.88201113954967
H            0.87277012054944       -5.43972775876123        7.05707429224197
H           -4.33555428591287       -9.67975364246987        3.87239670019555
H            4.27529438872631       -6.16395094667949        5.50311571495875
H           -1.44205458951709      -12.22738451044128        5.65838527020855
H           -3.20946056707013      -10.78781805159008       15.77033289032251
H            0.17670826708375      -10.22542368151842       13.31409062103096
H            0.49802160626435       -7.95088551452927       13.23858421821959
H            0.46677406737743       -6.48279069278614       11.44160248463929
H            3.96670809582013      -12.02826649853045       10.17989861017673
H            2.37079641305952       -4.35141467664581       11.03901126446836
H            4.06590338460864       -5.93098231766242       10.91656353257625
H            4.41539329153732       -7.58629088458660        9.30368017114247
H            3.03368952080211       -7.86079796224035        7.32757546654524
H           -5.75042471996492      -11.70118960132437        7.95336492344078
H           -8.65013895933182       -5.83857855215382        8.19783324509361
H           -6.48854298612916       -5.22971923939595        6.19606794060946
H           -2.18078042038342       -2.33724943699219        5.21539523109742
H           -4.42777361771261       -2.20215517318676        4.55855733559706
H           -5.86278122852249       -3.96271961417941        3.93840210069474
H           -2.23101540832266       -5.09199717575149        2.68531658828936
H           -3.46154823235706       -3.13181346337323        1.92065011106745
H           -7.48339418989461       -1.73019321690631       -3.20140089640100
H           -8.07118853028963        0.66202371671305       -3.11930352231100
H           -7.01345972070071        2.15838906921175       -1.48069156969412
H           -5.34304801147383        1.28835482054300        0.11474973366902
H           -1.93541161476609       -1.54060469350110        0.01821377981464
H           -0.38718988857027       -0.72274499345174        1.75265601826171
