53
 energy: -11.954433124982 gnorm: 0.000646141034 xtb: 6.5.0 (97a52f5)
C            1.37469609721863       -0.65488898960005        0.74665880003988
C            1.07671483091774        0.66722132835372        0.48189688176076
C           -0.23577578821805        1.06961673326741        0.37468422753428
C           -1.26793067034365        0.15203720433213        0.52817952131395
N           -2.64093184007065        0.56759359475294        0.39799245186546
C           -3.34372523631192        1.03442680323591       -0.72779856399139
C           -2.81939074547303        1.09140446318140       -2.08950334816408
C           -3.48687776538447        1.84177230477401       -3.05665881065829
C           -3.01704411134334        1.91150553573518       -4.34540368042868
C           -1.86244283114701        1.22926796393836       -4.71613402636012
N           -1.36463514315443        1.30492836643444       -6.06165615667956
C           -0.04207665385734        1.61784886775323       -6.44002015422057
C            1.07537780995922        1.94555318438327       -5.67265954151028
C            2.25739587863619        2.22696042316522       -6.31235618871165
C            2.34820017986323        2.19027917686631       -7.70673191996358
C            1.25629800207607        1.87488496414092       -8.47865909574690
C            0.04739518978594        1.58829744312962       -7.84218312311926
C           -1.25881968449650        1.24086231559813       -8.34846952731677
C           -1.74591583932941        1.05338431043890       -9.64316697574906
C           -3.06336792778200        0.69974084210176       -9.80667838369822
C           -3.90374063204853        0.52586566478699       -8.70326639068275
C           -3.43860422392718        0.70717268668484       -7.42402971638917
C           -2.10584771539903        1.07380848837767       -7.23950625466573
C           -1.19872270968495        0.46917657834895       -3.75847975480638
C           -1.67058041875380        0.39915771268828       -2.47149121111206
N           -4.56455860849214        1.42276957029204       -0.41137054891415
C           -4.71684725020098        1.21253287197894        0.92602831829416
N           -5.80240288454678        1.45805809043451        1.67862285749805
C           -5.60364123954314        1.14437525464241        2.93219560065213
C           -4.41876027648454        0.61872013774582        3.45136169896111
N           -3.34366022958927        0.36664910874150        2.75044914502413
C           -3.52497162207757        0.67391076953888        1.46339457637329
C           -0.95703428842345       -1.17371617449077        0.80046789937755
C            0.35622864771152       -1.57376368482824        0.90668370884760
H            2.40209634833627       -0.96929122596417        0.83028623986025
H            1.87148095663842        1.38441979365736        0.35855258481939
H           -0.48048651191757        2.09646104476522        0.16652446780493
H           -4.37962794322851        2.37119865742654       -2.77353677190652
H           -3.52830040238080        2.50619147271459       -5.08184405077720
H            0.99622250133016        1.98209531071402       -4.60107171394870
H            3.12901492821018        2.48141060221915       -5.73211565413052
H            3.28863788051251        2.41493358960904       -8.18239486826811
H            1.31768639605310        1.84716597332992       -9.55213566948177
H           -1.09166933498617        1.18395126138749      -10.48679327801757
H           -3.45468152572544        0.54995949597253      -10.79941625717301
H           -4.93143117133033        0.24243673279830       -8.86006238505835
H           -4.07645616623882        0.56401572716382       -6.57045891634293
H           -0.31675310344318       -0.07527256195198       -4.04695524055444
H           -1.15657415370597       -0.20496578610769       -1.74764604749105
H           -6.43247887832911        1.31500408152037        3.60394096718261
H           -4.36512342652897        0.39731308003877        4.50776530896859
H           -1.75915991385492       -1.88059902501107        0.92127777102760
H            0.58920322049824       -2.60506213519189        1.11507119885431
