99
 energy: -22.166632208179 gnorm: 0.000670061582 xtb: 6.5.0 (97a52f5)
C           -3.18074972568582       -1.52240907708524        3.32563918580983
C           -4.32305137084335       -2.22046202775720        2.98752255995427
C           -4.80778623577277       -2.16805570118234        1.69944133794354
C           -4.15461170864271       -1.41380456166285        0.73325711096438
N           -4.63627034993767       -1.39597044011037       -0.62892519801163
C           -4.29424412031231       -2.25794303884808       -1.68820358860938
C           -3.33775379846697       -3.36324377206168       -1.62070004090340
C           -3.13282229063031       -4.17424937448506       -2.73569220270444
C           -2.24029444745762       -5.22478557556935       -2.69302188639574
C           -1.53362388982353       -5.49080055577723       -1.54077772357317
C           -1.70840202566030       -4.69760726956112       -0.40363830452638
C           -0.97230568927521       -4.95713088505597        0.85850817166235
C            0.44055709696004       -4.85408212881501        0.90463288882961
C            1.19290974852579       -4.51397964758482       -0.24715944209453
C            2.55001083920232       -4.42913345553660       -0.20763488633512
C            3.23789130178962       -4.67867386720606        0.98627141054146
C            2.55288790070684       -4.99191023486068        2.11897575136912
C            1.13810197647605       -5.07452313238597        2.12736455196295
C            0.42529220563566       -5.37869248269349        3.31444865247362
C            1.15062633606046       -5.61093967460921        4.58904559016032
C            1.90271844397076       -4.59813725081395        5.19270918523086
C            2.57351523841476       -4.82922722167208        6.37358434514970
C            2.50855802584870       -6.06593556085801        6.97912470307209
C            1.76544214592586       -7.09342732997242        6.40707562205732
N            1.68845886138702       -8.38610362896278        7.03100287871259
C            1.36970521599722       -8.64460182736439        8.38101578539925
C            1.07452296119836       -7.77867975803064        9.43392147703100
C            0.77774779435057       -8.31100885900525       10.66493487009393
C            0.76455200878353       -9.69360590741519       10.86807943798686
C            1.04337501461655      -10.56187266203373        9.83932638029124
C            1.34630042624821      -10.03559486474543        8.58325445663408
C            1.65941872977407      -10.65870304269014        7.31755810306837
C            1.77707943461195      -11.99414635013984        6.93133322170415
C            2.09948143060369      -12.27668573186641        5.62505731768387
C            2.30894712917361      -11.25163295910055        4.69853141519193
C            2.19424224037688       -9.93258842353872        5.06389017061869
C            1.86079135155767       -9.62773906328430        6.38363319149681
C            1.09525745247071       -6.85309248857498        5.21842137160974
C           -0.98846119303870       -5.47119224358435        3.27028096959466
C           -1.74537404697157       -5.74743161355990        4.43632715900384
C           -3.10115869430441       -5.84840854456341        4.39410766859561
C           -3.78289716055563       -5.68167763382574        3.18272651175594
C           -3.09569704133393       -5.40134931231160        2.04300734445897
C           -1.68440194809657       -5.27018939625922        2.04394852873353
C           -2.61248706789421       -3.64231270323443       -0.47113899664837
N           -4.96442537867163       -1.95933727790411       -2.79177044878560
C           -5.75133685414223       -0.90192047863418       -2.48604315899083
C           -6.67650341797657       -0.19432149943280       -3.33646702115734
C           -6.85480351699435       -0.57027267683143       -4.66989858926501
C           -7.73905479246744        0.10072505613093       -5.47185376793550
C           -8.46593523786914        1.16504553622000       -4.95827815611842
C           -8.30424212636246        1.55156547454480       -3.65109266398700
C           -7.40883541559250        0.88914919442905       -2.79950568858553
C           -7.21764261298904        1.28303524846457       -1.39874606297470
C           -7.91514447909585        2.35499663143979       -0.82427996403643
C           -7.72142669022315        2.71462808643623        0.48569317058801
C           -6.82279128028933        2.01690154816318        1.27879537807913
C           -6.12549639134146        0.96375576114060        0.75245339901978
C           -6.30302191513600        0.57686360417831       -0.58004096361311
C           -5.57437700064721       -0.52426504076344       -1.15349325187807
C           -3.01328402569049       -0.70510453504826        1.08651418632290
C           -2.52820434008044       -0.76337095356150        2.37432875604603
H           -2.79790156252612       -1.57093002077017        4.33193806067446
H           -4.83102631771994       -2.81370678111259        3.73012824907009
H           -5.69032566413914       -2.71718468369224        1.42120093455499
H           -3.68642814893507       -3.96666351077917       -3.63451738797207
H           -2.09726146007595       -5.84269947386986       -3.56436825789872
H           -0.84665422441202       -6.31847168676160       -1.50035258739004
H            0.67279253140594       -4.31524555937476       -1.16713383925320
H            3.10163326745636       -4.17148899032109       -1.09704036971561
H            4.31375255394786       -4.61720460451015        1.00491382782827
H            3.08971222392157       -5.18567868931860        3.03048428084483
H            1.94483014224519       -3.63040992368552        4.72325872193727
H            3.15234874920631       -4.04032109083744        6.82535566516282
H            3.04241896219976       -6.25600997197250        7.89370016618286
H            1.07490774284142       -6.71627181231230        9.26903301302252
H            0.54909402525444       -7.65309633272225       11.48731578117201
H            0.52801261487569      -10.08377548656560       11.84438131957349
H            1.02846731431613      -11.62753997642080        9.98538974510430
H            1.61677688998907      -12.77714262385072        7.65133357246038
H            2.19447414389948      -13.30302382734619        5.31050460344242
H            2.56568823620912      -11.50100352966284        3.68199681873209
H            2.36432618907146       -9.13964796970816        4.35792951884765
H            0.51323559433503       -7.64087230367447        4.77716853623003
H           -1.23033327085463       -5.87384274886955        5.37196933125894
H           -3.65585465941381       -6.05984477209848        5.29363475109556
H           -4.85659225483802       -5.77223285573589        3.15772289438704
H           -3.62877581316951       -5.27718552444234        1.11735345517070
H           -2.73821233998655       -3.03646639593045        0.40247361672285
H           -6.28499997860514       -1.39744164743414       -5.05555891191254
H           -7.87138853631865       -0.19651807297942       -6.49936181629197
H           -9.16112195177345        1.69114028774286       -5.59221963547639
H           -8.87976784224169        2.38008180252628       -3.28097816250843
H           -8.61805515094159        2.91231923990091       -1.41583238394105
H           -8.26971121132030        3.54365115783239        0.90285712483564
H           -6.67549103217725        2.30339853993906        2.30736741879806
H           -5.42980006725309        0.42265298187371        1.36589207942370
H           -2.50873123297699       -0.12412080576905        0.33430407184288
H           -1.63640149199229       -0.21890473590078        2.63862358416525
