55
 energy: -12.413711824229 gnorm: 0.000704199060 xtb: 6.5.0 (97a52f5)
C           -1.23379369593205        0.15759961499294        2.40094627547623
C           -1.52360216583226        0.73445535970011        1.18024881611939
C           -2.32028551481528        0.06874582918441        0.27514923092240
C           -2.84071594223525       -1.18133704117093        0.58229267089350
N           -3.69046199018530       -1.86956063456382       -0.36108630581135
C           -3.28732828424725       -2.89360069461396       -1.23308906197598
C           -1.92179290170208       -3.45742997157596       -1.23273083515894
C           -0.94287647981395       -2.93219872352904       -2.05078851040541
C            0.35748755495459       -3.43298236304988       -2.03256478160028
C            0.69643509517948       -4.45729993375823       -1.19659837199111
C           -0.26351392668767       -5.03172390608947       -0.33439640447119
C            0.05630444171370       -6.08852005064205        0.54790572097576
C           -0.89246155101864       -6.61948474914678        1.37002245591503
C           -2.20195989857910       -6.12686724336132        1.35168621286179
C           -2.54196838146289       -5.10973616176622        0.51077894726219
C           -1.58707937015591       -4.53374169629281       -0.35058176686221
N           -4.28971406450763       -3.32027368839775       -1.99371844560581
C           -5.36467753315665       -2.58084669159786       -1.64061554315093
C           -6.71150159829035       -2.63600429986567       -2.16130907450011
C           -7.08085743418576       -3.51666366647488       -3.16752995371458
C           -8.37998352006949       -3.54158118103290       -3.63880161978823
C           -9.33011316902753       -2.69408219642138       -3.11596237053615
C           -9.00515260424412       -1.79024337556270       -2.09806920701018
C           -9.97539121829246       -0.90375387543668       -1.53439193837881
C           -9.64785336804306       -0.04128001456768       -0.54757462109696
C           -8.31701904673330        0.02156812939324       -0.02746237748606
C           -7.96419045677806        0.90585776620968        0.99804469904066
C           -6.67666284941282        0.94715525164837        1.48306262575933
C           -5.70445872879909        0.11507518039096        0.96395245931827
C           -6.00406744451031       -0.77958169709977       -0.05560259732751
C           -7.32925641763123       -0.83615185654918       -0.56342164334616
C           -7.67868213874245       -1.75548852231243       -1.61048378303776
C           -5.03049227136787       -1.67302257542220       -0.62622861144135
C           -2.53996482800000       -1.75406263523458        1.81054787249748
C           -1.74157478170155       -1.08798197198378        2.71361345238494
H           -0.60984510790985        0.67884498074438        3.10845026328789
H           -1.12699346240689        1.70634121555313        0.93581267478771
H           -2.55458362707059        0.50840596123356       -0.67854634756056
H           -1.19806772607332       -2.11753298858919       -2.70625076702506
H            1.10121241130302       -3.00343031582088       -2.68361965358259
H            1.70255760925674       -4.83940190052990       -1.18454562056102
H            1.06318904270379       -6.46867330170426        0.56229225084067
H           -0.63583251034477       -7.42450344151667        2.03902909596806
H           -2.94311213962154       -6.55534676634102        2.00638255348474
H           -3.54826554804338       -4.73058594521754        0.49288600433541
H           -6.33957482237647       -4.18144827889560       -3.57467494511631
H           -8.65023979946344       -4.23100964866520       -4.42184974531355
H          -10.34006986237892       -2.71995287014545       -3.48721283669484
H          -10.98247488703992       -0.93698949857817       -1.91263711596274
H          -10.39230168416522        0.61712653667037       -0.13444930738279
H           -8.71683124012612        1.55735696089543        1.40744541486528
H           -6.42435527287419        1.63410591662506        2.27430577532306
H           -4.70182300622559        0.15298040237859        1.34778007429830
H           -2.94009997029564       -2.72491229093733        2.04300829726372
H           -1.51079191252069       -1.54097044111944        3.66395031997326
