53
 energy: -11.810971766089 gnorm: 0.000845501314 xtb: 6.5.0 (97a52f5)
C           -1.03066644278674        0.18689746864216        2.40792709447340
C           -1.28148907941611        0.75171494949477        1.17277585680122
C           -2.12571813446612        0.12202600727319        0.28513674906658
C           -2.73229013220129       -1.08022261288031        0.62404562401426
N           -3.62495855991878       -1.73356313293823       -0.30483164341303
C           -3.27603383377218       -2.78099259179599       -1.17296730835861
C           -1.93858446037435       -3.40845533198822       -1.18039938370542
C           -0.95477871161989       -2.96158437955893       -2.03821292589475
C            0.31896989857259       -3.52681054966609       -2.03136445401907
C            0.62633510411256       -4.53860553128275       -1.16830141204138
C           -0.33989401688836       -5.03414733138802       -0.26514853717646
C           -0.05277903721104       -6.07661214472050        0.64502930898343
C           -1.00737551315727       -6.53213644065328        1.50494010237074
C           -2.29059893359363       -5.97454324566445        1.49868936956666
C           -2.59850277614963       -4.96879676330109        0.63205476956866
C           -1.63666787356396       -4.46976947867498       -0.26869784252356
N           -4.30162590714725       -3.16046798859216       -1.92653978211237
C           -5.33690048667824       -2.36519394619916       -1.57335138290724
C           -6.68442652860896       -2.35719218674604       -2.08866726609583
C           -7.06804242345088       -3.23895270638617       -3.10146464978851
C           -8.34825056660877       -3.22861579094874       -3.58764883785267
C           -9.27496325568812       -2.33472390657808       -3.07127279211424
C           -8.91849817087060       -1.46042673845857       -2.07474625741818
C           -7.61833774016023       -1.44150977668735       -1.55096517972940
C           -7.21447443088525       -0.51962094722004       -0.48245937506742
C           -8.10812353611862        0.39303297430471        0.09499831030044
C           -7.71416948597070        1.24322423344802        1.09782991897902
C           -6.40901705857858        1.21834051231029        1.56673838205717
C           -5.50853953705887        0.34090966295351        1.02659345095343
C           -5.88505985796552       -0.53537244783706        0.00395851049298
C           -4.95529316605281       -1.47129631577105       -0.56785001252899
C           -2.46994668524417       -1.64184031136027        1.86664955902207
C           -1.62481494891206       -1.01130740222705        2.75255621602381
H           -0.36993962974617        0.68007684439747        3.10200764461033
H           -0.81651293371341        1.68578205382691        0.90275015963238
H           -2.33094438334851        0.55328392954541       -0.67931382540179
H           -1.18425209069263       -2.15809781128212       -2.71654021708047
H            1.06758237909867       -3.15809378604668       -2.71342741725393
H            1.61191476551057       -4.97106872680687       -1.16580431535481
H            0.93387388761821       -6.50674389108273        0.65018343653272
H           -0.77599498627485       -7.32709044764000        2.19492110531821
H           -3.03651357489638       -6.34327342836024        2.18366648507380
H           -3.58454642305368       -4.53947353447051        0.62374895146456
H           -6.33962412701061       -3.92712462484404       -3.49309751761175
H           -8.63638694945807       -3.91271460514229       -4.36908113649460
H          -10.28158746046204       -2.32836403614731       -3.45667464558218
H           -9.65732526337856       -0.77900503079779       -1.69465566702431
H           -9.12571140579158        0.43285332298261       -0.24792107056923
H           -8.42183140088391        1.93482506907930        1.52526569921091
H           -6.10521312127924        1.88856439190897        2.35424246086980
H           -4.49704654384619        0.31655132705112        1.38725734851320
H           -2.93607492618796       -2.57630072552614        2.12455930194853
H           -1.42690952376509       -1.45401209955043        3.71516903927762
