50
 energy: -9.302649384250 gnorm: 0.000522746463 xtb: 6.5.0 (97a52f5)
C            0.98944275082810       -0.26957544187948        0.20206876432541
C            2.52636399659009       -0.14496387070599        0.14098943943705
C            3.13489636498488        0.09736606492721        1.53776582908994
C            3.05280395672337       -1.52176748955087       -0.32979994716812
C            2.93650376125207        0.98877944924360       -0.82848185670382
C            3.70510663899743        0.67311636801661       -1.94271998512736
C            4.10236573262933        1.61796652252352       -2.85896150065714
C            3.74255931677510        2.95028783032623       -2.70448184525772
C            4.14053456224923        3.94170418829695       -3.64607828491197
C            3.78888586405849        5.23485004906426       -3.49895450952055
C            2.99609590088297        5.70446871286682       -2.39646534246735
C            2.59747574126251        7.05880803099435       -2.20569258847318
C            2.87878808552258        8.29737472495712       -3.10574942137096
C            1.52779863120741        8.89450589264018       -3.55738569620017
C            3.65452683852414        9.34455859196246       -2.27751712572983
C            3.69788057388688        8.04890301805108       -4.38285900451895
C            1.84343646101669        7.35308050490775       -1.07395874899401
C            1.46510314385749        6.40942361142093       -0.15116687759176
C            1.82855781747666        5.08173938803877       -0.31521206352826
C            1.43811455001620        4.08959307544541        0.63211564399373
C            1.78511975835406        2.79689159754957        0.47799276751617
C            2.56259481847247        2.34431959834462       -0.63975819618743
C            2.96585099669926        3.33166070785026       -1.58974010377448
C            2.59962049731450        4.71375342259271       -1.44059819204050
H            0.69373489116796       -1.07138578299240        0.87853781667452
H            0.58994788910191       -0.50365867969583       -0.78468279579966
H            0.49854496047896        0.63871396100905        0.53919497853775
H            2.84512783009812       -0.69485057686881        2.22794225969571
H            2.83130290148713        1.04255449431550        1.97857688317594
H            4.22327762881335        0.10524079357713        1.47953130377528
H            2.74565063431713       -2.30682865020675        0.36123582674626
H            4.14175961827576       -1.53701057764278       -0.37257770034061
H            2.65807782805170       -1.78210158997714       -1.31179873056102
H            4.00947432926384       -0.34398151974404       -2.11137533871443
H            4.69676253869266        1.33147270225019       -3.71014837773133
H            4.73588673914411        3.63475244532845       -4.48958050057182
H            4.13545236261057        5.91353093159419       -4.24704254478375
H            0.91928979931322        9.21129281169613       -2.71203781661904
H            0.95525264226137        8.16083224065999       -4.12457295438917
H            1.68036655928302        9.76602085484276       -4.19382533959389
H            3.09221257978650        9.67105765154136       -1.40430688488964
H            3.87249590970050       10.22966256628707       -2.87498219905492
H            4.60172551864616        8.93275786756804       -1.92975230415201
H            3.19124142499252        7.35158379346595       -5.05008743875985
H            4.70352878860526        7.70050191058895       -4.14778118029104
H            3.81703562268489        8.97879024393921       -4.93991752437993
H            1.53358537912261        8.36950763624515       -0.90400356151729
H            0.87974481863634        6.69227403391203        0.70749553211886
H            0.85411259182629        4.39583721803161        1.48356828734962
H            1.46468145405549        2.09989867239099        1.22693914993661
