78
 energy: -16.457018059130 gnorm: 0.000496020200 xtb: 6.5.0 (97a52f5)
C           -0.08508853148045       -0.33551530484230       -1.41833025713485
C           -0.80669970116300        0.70089460791003       -0.86097013523004
C           -2.17333847317632        0.58432788952924       -0.70707467985636
C           -2.82531799979803       -0.56622955776371       -1.10794240533910
N           -4.24039848786586       -0.70416111331973       -0.94634810385059
C           -5.53885682706160        2.15538580772330       -0.33774556510585
C           -5.26153581329224        0.69048836424261       -0.73577655386406
C           -4.86868594836621       -0.20895623724951        0.64023331909015
C           -4.80360032723137       -1.74327450426162        0.01893548483832
C           -6.32909769977524       -1.77510243892807        0.14229989883516
C           -8.27287071130209       -1.96732048442796       -0.77243609165758
C           -9.27325751876895       -1.10164372524841       -0.08407989351364
C           -8.97714365009906       -0.15823266388466        0.86421403250060
C           -7.74028384077131        0.11634017609019        1.39274886538598
C           -6.49381002429010       -0.68832291347518        1.26411252238119
C           -5.26940346611436       -0.11427900699066        2.25874987737370
C           -4.61753395735186       -1.07411625340096        3.22010391111436
C           -4.35397746330819       -2.42265382395400        3.07889323560258
C           -3.75432443373892       -3.10861345068558        4.11965192369046
C           -3.42034909851882       -2.45900608416939        5.29731731397073
C           -3.68304110331571       -1.11329629224577        5.45551031583707
C           -4.28366231106649       -0.42359589800325        4.41267233249704
C           -4.70835432101412        0.99113165782999        4.30209073002943
C           -4.62333777515296        2.02481335785080        5.22280444208262
C           -5.12959352980576        3.26140115131011        4.88136783892679
C           -5.71299944910352        3.46223782086797        3.64171984229804
C           -5.79617806372016        2.43199132316625        2.72310309213596
C           -5.29339191465362        1.18575074503540        3.04231938272042
C           -6.55452637022259        0.25686889226327       -1.53212393454479
C           -6.19579798428204        0.23993320907160       -3.01457854637518
C           -5.94337507170032        1.31589055845973       -3.84057527290447
C           -5.58403195310643        1.09058848473605       -5.15608639713827
C           -5.47219745539148       -0.20149528802263       -5.64151946488508
C           -5.71650885703305       -1.28340566033254       -4.82101100163694
C           -6.08001314236047       -1.06452920089638       -3.49679448564316
C           -6.38335032204429       -2.04131814668581       -2.44860324015833
C           -6.19095817327821       -3.36570849199392       -2.57384322273164
C           -6.46634142650390       -4.38775688595132       -1.58864996237519
C           -7.00731989590374       -4.20826328849354       -0.38473108977048
C           -7.42288078418634       -2.88826997428093        0.17498160330690
C           -6.92578262423492       -1.29134041278413       -1.22899850208629
C           -7.53939939626554        1.39320358919634       -1.26035878971760
C           -8.83214700070835        1.57372265473685       -1.67912805114411
C           -9.46758234183626        2.78242391450318       -1.41782929649166
C           -8.79742545852084        3.81762851831655       -0.76882206152114
C           -7.49070070747799        3.67855522152905       -0.37655928330398
C           -6.81866529057081        2.45307462346265       -0.62206306562165
C           -2.09844923968048       -1.59904579141770       -1.66825376336499
C           -0.73150098841401       -1.48634244848403       -1.82249576313060
H            0.98237424662223       -0.24585620511307       -1.53851758539790
H           -0.30407823396203        1.60127806864118       -0.54702934939611
H           -2.74477046505295        1.38706598274592       -0.27441024428977
H           -8.72263984134925       -2.54496858564652       -1.59531162624885
H          -10.30156759729268       -1.21129976452351       -0.38679508149275
H           -9.79664251704308        0.45786958616814        1.20397603113438
H           -7.68173284474946        0.92580603219937        2.09702132759948
H           -4.62121355138201       -2.92792213539473        2.16821791330933
H           -3.54717290607129       -4.16098188590719        4.01317216134420
H           -2.95511594117806       -3.01025507108481        6.09822610027105
H           -3.43527811963312       -0.59956615457019        6.36777420016630
H           -4.17370484553607        1.85168481198961        6.18481126362121
H           -5.07462403527142        4.07526780181958        5.58590348724092
H           -6.10883447631637        4.43255311639123        3.38954421267679
H           -6.25379660610215        2.59804118742040        1.76735113973776
H           -6.02472135731184        2.31538030996313       -3.45071761461062
H           -5.38762014941624        1.92677149958054       -5.80710656079633
H           -5.19126062979922       -0.36343361974646       -6.66944805682839
H           -5.63273882776509       -2.28721898248450       -5.19808310342150
H           -5.77978632362223       -3.70768997756788       -3.50827848025092
H           -6.20581198037415       -5.39627832084579       -1.87127413610474
H           -7.15200216261982       -5.06949469548354        0.24771380146888
H           -7.87652367485286       -2.97338591535959        1.17455024025098
H           -9.33639344511277        0.78473756295759       -2.20927621422913
H          -10.48924434961263        2.92277700043163       -1.72996496241391
H           -9.31195069687164        4.74606137502164       -0.58220608874915
H           -6.96483774586023        4.48366126833961        0.10590598384171
H           -2.61574115070765       -2.49008490582752       -1.98003924457028
H           -0.16994284671499       -2.29638660974443       -2.25874059838454
