74
 energy: -16.687712758503 gnorm: 0.000309736709 xtb: 6.5.0 (97a52f5)
C           -0.11108972096577        3.82198422461260       -1.09870955411377
C            0.30887486903960        3.36025198001789        0.13344206657340
C           -0.40499131148876        2.37689544979511        0.78212323617031
C           -1.55108514241383        1.84028413794847        0.20671937433951
N           -2.29030937108845        0.80315210871795        0.87534920266724
C           -3.68418609378053        0.78385090869483        1.09511218404876
C           -4.66865432403246        1.72914807397772        0.80830816448436
C           -5.97138204852930        1.44850678658167        1.14080702168911
C           -6.31402962357436        0.24177381646138        1.75772551371941
C           -5.35639515244939       -0.69858709835206        2.05228601146010
C           -4.02774384486911       -0.42651587639554        1.72175244460238
C           -2.80957632018592       -1.18238178769542        1.89058833730105
C           -2.56123056785167       -2.45084736472412        2.40886902765896
C           -1.26530750168667       -2.94932202642569        2.40894664521579
C           -0.98574560240177       -4.31122107196445        2.91054616472380
C           -1.72117054088286       -4.84649459652938        4.01439447114644
C           -1.51929057028137       -6.11246114406516        4.45613899585631
C           -0.55470479976209       -6.91092186335202        3.80546891321675
N           -0.18607720231532       -8.16754636011959        4.00035534610815
C            0.77225481158921       -8.38547045862535        3.06458200539691
C            1.45409113157360       -9.67144528629850        2.89793420746686
C            2.52381364620136       -9.79457384695244        2.01537310258998
C            3.15121681167946      -11.00364088544269        1.83773482703015
C            2.72451078867043      -12.13243936200119        2.53040778803825
N            3.36226893823235      -13.40260122659240        2.31776751783600
C            3.79137982409026      -14.30125816348047        3.31761292221317
C            3.74064192858678      -14.21716234536074        4.70922824782861
C            4.25235779442184      -15.25127212831570        5.45420964419835
C            4.82084720489001      -16.37074413887635        4.83937910958853
C            4.88814706797425      -16.46672607914982        3.47061968097800
C            4.37218653353202      -15.42282920962589        2.70015273569887
C            4.30175403920357      -15.21319719012871        1.27452054332345
C            4.71826834690845      -15.98726605524334        0.18954662211110
C            4.49898991905325      -15.51293924201495       -1.08103358451478
C            3.86789575708099      -14.28322111716868       -1.29019412156448
C            3.45399278643946      -13.51086833794788       -0.23279834265645
C            3.67760243154625      -13.97128384855849        1.06515375269345
C            1.65884903114328      -12.00995097544718        3.41718007323478
C            1.03608567336174      -10.79852272337894        3.60054508511417
N            1.02568778014412       -7.32781162011730        2.28875727154222
N            0.19662733556042       -6.39165546631948        2.73579229302959
C           -0.04020376122583       -5.09114938021266        2.30530428497287
C           -0.22384948184796       -2.14995304389588        1.88606746441183
C           -0.45685423667632       -0.90167387768910        1.37068860419656
C           -1.76057277955452       -0.40541262800608        1.36953954905774
C           -1.96362686370581        2.31396271698068       -1.03357779808009
C           -1.24844549780837        3.29728497520346       -1.68065816727221
H            0.44856860651800        4.59061099465241       -1.60608291289215
H            1.19577408232161        3.77016421141869        0.58823415431364
H           -0.09041312033103        2.01867255068100        1.74667224612995
H           -4.39737883408647        2.65868448505085        0.34106337620478
H           -6.74226110927707        2.16962073233218        0.92396390566651
H           -7.34436557644985        0.04807681052072        2.00677614745956
H           -5.61141395850369       -1.62864672188519        2.52873122322390
H           -3.37647616543463       -3.04619228805219        2.77520930794060
H           -2.44496059295532       -4.21863741782280        4.50392953299854
H           -2.07532779235172       -6.51920076985896        5.28146127444156
H            2.85109527336091       -8.92545720290263        1.47236337378969
H            3.98762732364283      -11.09010720007529        1.16670037144636
H            3.31495968762115      -13.34835215720923        5.17795343686203
H            4.21739413805568      -15.19938599076105        6.52997969542163
H            5.21414629186902      -17.16773958678652        5.44871750357599
H            5.32800211512419      -17.32223001147440        2.98936022460661
H            5.19882861151287      -16.93447350008597        0.35918311398820
H            4.81430478930776      -16.09775952014518       -1.92940863715480
H            3.70264852956124      -13.93772034642260       -2.29744431208717
H            2.95593386305485      -12.57110623940132       -0.38942134870771
H            1.31570816796814      -12.88393297616098        3.94225733948598
H            0.20835722447947      -10.70775708879563        4.28164547219905
H            0.51494127341625       -4.73248235005444        1.46137094288547
H            0.78048693196495       -2.53568830705139        1.90294626175583
H            0.34060174522505       -0.30754377167910        0.96218383200464
H           -2.84273405415865        1.88966909792418       -1.48615671355908
H           -1.57496954313718        3.65505721150577       -2.64339769729103
