61
 energy: -13.635087040031 gnorm: 0.000879771199 xtb: 6.5.0 (97a52f5)
C            0.89941877426067        2.70615939531574       -2.06853768883748
C            0.58487264750050        2.77026979016432       -0.72494942167900
C           -0.18561922326004        1.78448188053970       -0.14863935521669
C           -0.65423152544176        0.71920579964029       -0.90914758502238
N           -1.45046428610464       -0.31672853889072       -0.30732643901911
C           -2.68063061368621       -0.80827254220993       -0.79469424523180
C           -3.45597671594705       -0.41402526973319       -1.88481590334328
C           -4.64190992155552       -1.06518584477287       -2.12265362866264
C           -5.07412479141685       -2.10291345836427       -1.29161260933803
C           -4.32609383526009       -2.49980819142678       -0.20923022929725
C           -3.11948724694610       -1.84600158398500        0.04543613455513
C           -2.12617594101605       -2.00736605313906        1.08073187476131
C           -2.02355888351222       -2.89810633839264        2.14553630452236
C           -0.91627728912787       -2.84209155696083        2.98120782209472
C           -0.78683047898177       -3.78589787461539        4.11249740528576
C            0.45632379310156       -4.28646317455213        4.50091775516331
C            0.56247801667983       -5.17560850822205        5.54969918763683
C           -0.56385224334697       -5.58660415388028        6.22809777023863
C           -1.81687194944242       -5.10832795673259        5.86375531071975
N           -3.00183237420277       -5.54478813950280        6.55083665475656
C           -3.19832375838403       -5.58055170019224        7.94510127922351
C           -2.36360921618303       -5.21000476657726        8.99945174765210
C           -2.82505287373664       -5.34320414386280       10.28609726303382
C           -4.10765086364907       -5.83642182458584       10.54488085443790
C           -4.94561536872794       -6.19827710137800        9.51840700470875
C           -4.49038499415345       -6.06800796018666        8.20559866110910
C           -5.11996772731761       -6.34291306945526        6.93840095735174
N           -6.35131573104394       -6.81989878828488        6.70091292154303
C           -6.62960881073277       -6.96691851384702        5.42189230578578
C           -5.77414002026670       -6.67884679560478        4.36100898431044
C           -4.52101716628852       -6.19204921956294        4.60817826471693
C           -4.18384669559102       -6.01183075927319        5.94122323789505
C           -1.91193302578429       -4.21056801826007        4.81104963208993
C            0.08456999884911       -1.87745001100587        2.72948012854286
C           -0.00309717180286       -0.99894964464374        1.68090170252122
C           -1.11886939593790       -1.05551097655617        0.84512868715640
C           -0.33137475350989        0.66660071186878       -2.26056426406540
C            0.43978757041304        1.65288190113753       -2.83487410035747
H            1.50371646741792        3.47691718363583       -2.51832788441051
H            0.94184206966945        3.59286018937070       -0.12699424680243
H           -0.44364463201453        1.83201095246547        0.89496372897241
H           -3.12228833937262        0.39105922851096       -2.51453091965346
H           -5.25046423745072       -0.77113053449249       -2.96207755036116
H           -6.00891240935472       -2.59613395005152       -1.50205490223180
H           -4.65340691433236       -3.29406389418459        0.43830948010348
H           -2.78882642816340       -3.63577594074571        2.29902622397128
H            1.33703507501267       -3.98608602182806        3.96052943732833
H            1.52942242621194       -5.55647273360424        5.83534968957296
H           -0.48934619301278       -6.29429433917270        7.03507553845678
H           -1.38263552811237       -4.82101817234059        8.79381566360783
H           -2.19014410792342       -5.06176124729261       11.11016871263573
H           -4.44348303278012       -5.93089284452086       11.56446169044516
H           -5.93548175993840       -6.57451876905090        9.70618749161226
H           -7.61407297111515       -7.34887614976733        5.19589408497697
H           -6.09984234059118       -6.84087274319037        3.34651473596603
H           -3.82278213907463       -5.96545792181272        3.82249090471838
H           -2.87881989661356       -3.82489122262958        4.54683136269261
H            0.93235938716426       -1.82941475162496        3.39040702101513
H            0.76999010032590       -0.27644124364947        1.49026580579978
H           -0.68296034742423       -0.16399811754692       -2.84729751930629
H            0.68697984305851        1.60098604349205       -3.88272293085545
