70
 energy: -15.715126870341 gnorm: 0.000663939825 xtb: 6.5.0 (97a52f5)
C            2.97021689282401        0.89503565748575       -2.78779624484490
C            3.01062514307622        0.84071323819446       -1.40831608365957
C            1.99922051640117        0.21578511093181       -0.71290549386518
C            0.93114114111448       -0.36469332862737       -1.38758730350309
N           -0.12744887766767       -1.01104217133798       -0.65927670273055
C           -1.50965852129005       -0.76327603612760       -0.80676226069057
C           -2.19978523318439        0.10781372852385       -1.64946008428734
C           -3.57026322174534        0.15695786419024       -1.57134921063438
C           -4.27010916695608       -0.64387235396237       -0.66429127175503
C           -3.60604316036205       -1.50140775855118        0.17941171515701
C           -2.21340051404646       -1.56186390361161        0.11069528035552
C           -1.23681591981994       -2.32787488255595        0.84773184022296
C           -1.36350429965709       -3.26608044841790        1.86747020109239
C           -0.22604409591680       -3.87006610880019        2.38422264114242
C           -0.34793950623132       -4.85722944920803        3.47977726141186
C            0.33547552450773       -6.07224071130833        3.44794111847877
C            0.18555933348413       -6.98781823356323        4.46847163331906
C           -0.64038405313750       -6.70991903040954        5.53652446221528
C           -1.32612430218293       -5.50256475094991        5.60057581209364
N           -2.17179358328660       -5.18243551656054        6.71796576917734
C           -1.83358474153676       -5.31261398393219        8.08288808587301
C           -0.70686667176901       -5.81835285963248        8.71452391277662
C           -0.70166972068218       -5.76568824013792       10.08068278705049
C           -1.78814853313140       -5.22091489040437       10.76252068133392
N           -2.87131611101415       -4.71768672287762       10.21008772109974
C           -2.86752364518543       -4.77054016495262        8.86879449942191
C           -3.86203947011990       -4.28690397436822        7.95256100457506
C           -5.07965203593503       -3.62903384807022        8.16184932422844
S           -5.81654172755503       -3.16912343242974        9.67201730438122
C           -7.20193804707364       -2.44572582744762        8.86829279462779
C           -8.30083633014343       -1.81452566780304        9.43041538915079
C           -9.28052364965455       -1.30908250258744        8.60669678279907
C           -9.17370797598073       -1.42839406853311        7.22406794020711
C           -8.08878019449066       -2.05188779186493        6.65499712465407
C           -7.08389155760679       -2.57095133764282        7.47887712534360
C           -5.85685114239921       -3.25496521294532        7.07036767672499
C           -5.41700489663486       -3.54484422372338        5.75575680144843
C           -4.22236970437879       -4.18182472149800        5.54592811538241
C           -3.42662247805695       -4.54928769823001        6.64613625560430
C           -1.17028912604399       -4.59109002995218        4.56787951542836
C            1.03873264877089       -3.52129127038692        1.86275111523142
C            1.17588566383045       -2.59090637251619        0.86529833445060
C            0.03151137672718       -1.97696335064200        0.35335649037441
C            0.90225854266228       -0.30370494655071       -2.77609512050617
C            1.91481572470622        0.32155886055381       -3.46977619326888
H            3.76168496842391        1.38468103669379       -3.33120602247090
H            3.83272382006030        1.28973302879586       -0.87535470064784
H            2.01643887283881        0.18000183797487        0.36234426070912
H           -1.65562540863003        0.72874082633866       -2.33801981417900
H           -4.11587948425119        0.82399822370728       -2.21839352172635
H           -5.34539208981910       -0.58531175617134       -0.62519913366881
H           -4.13619382197532       -2.11781792332745        0.88379840980426
H           -2.33634752586368       -3.52633422494283        2.24119071841066
H            0.97052365977551       -6.29470379117744        2.60797713171272
H            0.71306253688574       -7.92676507528240        4.42854507662745
H           -0.77341166908384       -7.42896484211184        6.32556871132318
H            0.11634208606255       -6.21664915707553        8.14932296358627
H            0.14459743296186       -6.14304502356981       10.63098051694918
H           -1.75497686828343       -5.19508835880645       11.84161939781273
H           -8.37177621139710       -1.72636839907136       10.50069698649296
H          -10.13758062867211       -0.81589790814340        9.03528488627002
H           -9.94985778185951       -1.02638515518652        6.59370654933032
H           -8.00320475827918       -2.14304840707498        5.58670686213213
H           -6.03247310135840       -3.25697570027887        4.92224142587204
H           -3.88875644681753       -4.41470411677201        4.55100436969231
H           -1.68068424316567       -3.64763730390842        4.62308985018351
H            1.91256551531763       -3.99421115335912        2.27623228567822
H            2.14200554584049       -2.33158629121174        0.47131400020991
H            0.08245361883342       -0.76277828068112       -3.30033020325923
H            1.88388168907744        0.36220127818927       -4.54627955383845
