87
 energy: -19.188798830656 gnorm: 0.000423859820 xtb: 6.5.0 (97a52f5)
C            0.85690584520952        2.46324147386629       -0.52162942700999
C            1.08674974025038        2.04177457629055        0.77360082944124
C            0.24279240828101        1.12513526836296        1.36100031034460
C           -0.84540019330102        0.61517527907066        0.66119237382821
N           -1.72745640925270       -0.33906595958161        1.27796692200301
C           -3.13569665286165       -0.26371027402131        1.33139213016001
C           -4.02239436480147        0.68402663981324        0.81992197723816
C           -5.36947310678374        0.50617708249374        1.02088167248003
C           -5.85358065284106       -0.59877263741345        1.72763660536440
C           -4.99423753161508       -1.53636846228842        2.24823030123478
C           -3.62234785776556       -1.36792313599071        2.05326770027193
C           -2.48050698610096       -2.15298177894421        2.45851103236282
C           -2.36869007351979       -3.34266576592437        3.17622599481106
C           -1.11619985635387       -3.88800938770114        3.38852072515567
N           -0.98216898292864       -5.13361287765663        4.10395207543946
C           -1.81042775523492       -6.24346515093448        3.95673041031359
C           -1.34129505118084       -7.27445873707185        4.71248035479116
C           -0.16740617865387       -6.82375367919309        5.37580205344973
C            0.73406690360222       -7.46580849037831        6.23528459871335
C            1.83194820301777       -6.77142660499116        6.71156513781134
C            2.83961830599326       -7.45178450120807        7.55700783458761
C            4.20007726622141       -7.29850189311827        7.30045731904520
C            5.13909523599990       -7.97368386690192        8.04726535307217
C            4.75949751974752       -8.81116162077460        9.08555184808981
C            5.80558363326231       -9.64377484775122        9.83162560779750
C            7.11671371068421       -8.87757598724103       10.03455924356994
C            8.34480505214774       -9.51095082460540        9.91568058424817
C            9.52096118268612       -8.82623640443733       10.14227065900806
C            9.48618431787486       -7.49565487604878       10.50304857699647
C            8.27263488154664       -6.85544918296390       10.64210208935431
C            7.09877158453022       -7.54409065391168       10.41492872283780
C            5.29268236504204      -10.13494402127532       11.19281976297541
C            4.93157914643378       -9.42077014794733       12.31723032526607
C            4.50172810219974      -10.10627840507980       13.43883703032983
C            4.43427039380710      -11.49048479034239       13.43916978587050
C            4.79520869639056      -12.21307918440423       12.31973399684175
C            5.22751755144404      -11.52967547748796       11.19201009390448
C            5.66924052455351      -12.03606623119134        9.88555772241874
C            5.76554423852809      -13.33657923224079        9.41087602712443
C            6.20570502154166      -13.54355946810861        8.11882631146748
C            6.54449817260953      -12.47247522478552        7.30726316357704
C            6.45067904766472      -11.17487602281420        7.77604197548154
C            6.01678704123843      -10.95931577452124        9.06834627354221
C            3.40503530909724       -8.96665432844453        9.34198683184184
C            2.45936003937401       -8.29837233886078        8.59576937377296
C            2.00607199656695       -5.41374489796584        6.34352097305643
C            1.13251016017046       -4.77259181153753        5.50892118051567
C            0.03968687483108       -5.48409307319405        4.99831293781731
C            0.02108942491322       -3.24425484966027        2.86868212030485
C           -0.07306016604662       -2.06743817781262        2.17137429474927
C           -1.33372618489820       -1.50649815441020        1.96659419200430
C           -1.06506275060159        1.04685522223203       -0.64223573150027
C           -0.22006032194345        1.96377895301075       -1.22804828528369
H            1.51737582470911        3.18086082933648       -0.98042593548403
H            1.92622821750772        2.43180171947785        1.32584755018587
H            0.40770753910308        0.80133435140516        2.37384125432031
H           -3.64406614548798        1.53583679006769        0.28397506904563
H           -6.06547979121878        1.22879612846360        0.62726608238208
H           -6.91591562212768       -0.71508468409552        1.86670775294389
H           -5.35791376098999       -2.38829993821695        2.79524123516438
H           -3.24592582634880       -3.83071751572187        3.55711743355634
H           -2.67628534484396       -6.26976672788845        3.31634148629931
H           -1.76643811917076       -8.26088644436845        4.78928480633320
H            0.58727825591988       -8.49876700535029        6.49136621234105
H            4.51130658620313       -6.66392529392579        6.48864189474008
H            6.18534610408351       -7.86575920561500        7.81870548971116
H            8.37458900252924      -10.55222115838861        9.64657188489719
H           10.46703575944977       -9.33238919191566       10.03952717260680
H           10.40419566941820       -6.95909881791543       10.67994961294661
H            8.24066166728417       -5.81712427354606       10.92952840845710
H            6.15170959739597       -7.04498918639254       10.52792650567041
H            4.98696722264967       -8.34653929118537       12.30987520622185
H            4.21774127549588       -9.55757384886088       14.32189978232700
H            4.09795396689315      -12.00849698640200       14.32243273594334
H            4.74758977776397      -13.28780191325455       12.31085970981946
H            5.49628035512128      -14.16153191315457       10.04668091291454
H            6.28369845752204      -14.54829610133547        7.73672034893104
H            6.88283351437574      -12.65144479684263        6.29977884905424
H            6.70808692716766      -10.33742311237172        7.15168476786018
H            3.09478460168681       -9.63418734376776       10.12674663168316
H            1.41223441512008       -8.42899704417758        8.80805883133381
H            2.85258279359900       -4.88073867692137        6.74088687278524
H            1.26772771217289       -3.73814912247121        5.24963578811510
H            0.98133576702610       -3.70822337580879        3.00787012530865
H            0.79892432423640       -1.58483914352604        1.76792165456137
H           -1.89847751618606        0.64360650821114       -1.19047139491439
H           -0.39844202890656        2.29078050440346       -2.23949671082011
