38
 energy: -7.527732132360 gnorm: 0.000176134077 xtb: 6.5.0 (97a52f5)
C            1.02073042305677       -0.28438147269299        0.48960590640718
C            2.44249432808329       -0.01882576221066       -0.04773400742022
C            3.37516745340889       -1.01726584079616        0.67846789995519
C            2.55053510596246       -0.33991136462115       -1.55287743575927
C            2.85115383570620        1.44841465678034        0.22072040891907
C            3.95135417430853        1.70366500595476        1.03294219721462
C            4.37707771776636        2.97708655452519        1.33493363095299
C            3.71052708040985        4.08604703995649        0.83070231019397
C            4.13122804198429        5.41996149562982        1.13822456998254
C            3.47525551991137        6.49152865477946        0.64607855080023
C            2.33580544101057        6.32907110418701       -0.20293119491374
C            1.64097055825038        7.42290196539977       -0.72243364860480
C            0.54483571828909        7.24043840291681       -1.53953393586933
C            0.11298051392342        5.97033111101563       -1.85989551502604
C            0.77452447340939        4.84571146535748       -1.36368670169935
C            0.35409054451102        3.51748323570776       -1.67134453002008
C            1.00341745760042        2.44186265403497       -1.17696666253643
C            2.15093856038561        2.55778004014687       -0.31776355406400
C            2.58775637575446        3.87775665434801       -0.00443820629109
C            1.89936207315827        5.01879662741830       -0.52475653376862
H            0.72647747887596       -1.31804531433005        0.30911577872300
H            0.26716068408889        0.35361824386239        0.03696217769752
H            0.98470797647413       -0.11158359355659        1.56510399337444
H            3.06711993688543       -2.04392452715311        0.48086424475605
H            3.34592662298226       -0.87281537090921        1.75820305174592
H            4.40526689967602       -0.91716254276988        0.33731229159825
H            2.27410706069345       -1.37600795591557       -1.74709070866790
H            3.57495584073321       -0.19942705264456       -1.89696714370471
H            1.91517145163034        0.28810691326115       -2.17047388412978
H            4.50429209883802        0.88296070167730        1.45257827745453
H            5.23393766104686        3.12595284556689        1.96991715843014
H            4.98751375987408        5.55491328331083        1.77652476529678
H            3.80196540584937        7.48840656622130        0.88745309123093
H            1.97176950563320        8.41731917044195       -0.47602489145998
H            0.02095134164864        8.09765872917577       -1.93047965420426
H           -0.74363593652165        5.83464267651438       -2.49766438076458
H           -0.50177064955368        3.38737093540207       -2.31156242372594
H            0.63628746425297        1.47123406400616       -1.44617529210497
