87
 energy: -16.268592787342 gnorm: 0.000936080729 xtb: 6.5.0 (97a52f5)
C           -0.43964921657063        1.42941059624644       -1.25264994702024
C            0.25882115059814        1.22952158371091       -0.07777344206578
C           -0.19038770414149        0.30998072275860        0.84428754878046
C           -1.34662102092630       -0.42435263614319        0.60469092468695
N           -1.81522829034932       -1.38479640423472        1.56728892448601
C           -3.12279041151414       -1.47243050250766        2.09002259023120
C           -4.25924130863846       -0.70108684555692        1.84689229357468
C           -5.42070984978766       -1.00629372529454        2.51356861993482
C           -5.47221986697102       -2.06628003355618        3.42384688239263
C           -4.36027235705584       -2.83159791999602        3.68159279066935
C           -3.17267819925286       -2.53279217228456        3.01175665653642
C           -1.85527353356985       -3.12118507136874        3.06114203368479
C           -1.33353531822168       -4.19016675082242        3.78746390417290
C           -0.00723954100222       -4.53810898130595        3.61448930720278
N            0.55387222636630       -5.63937899047537        4.35802083894314
C           -0.01375073037096       -6.90218233926968        4.50598902284085
C            0.80956452864858       -7.69239217479335        5.24920300502797
C            1.94920306768791       -6.91831304756985        5.60003016349336
C            3.09982106093770       -7.21497798330098        6.33978298889434
C            4.06520029601313       -6.24147487186283        6.52250370113932
C            5.23760542595888       -6.56109788460219        7.26508405332345
C            6.45558104959448       -5.98030502897923        7.25096140297260
C            7.53639876274706       -6.41333740367959        7.99635623140127
C            7.55508077160331       -7.45918142988319        8.84687380758792
C            6.51011049383662       -8.36251132254096        9.23432951555911
C            6.08475383232735       -9.33198512401207        8.25919007774548
C            4.84883281345187       -9.74930550966300        8.03369122084325
C            4.44891595179332      -10.60949380033522        7.07588081974388
C            3.14636290226277      -11.02669896264706        6.83939751332107
C            2.00049100133329      -10.66420079754726        7.53122143256521
C            1.96077941024331       -9.83229516449550        8.57791520341048
C            5.52526133808600       -7.86077532141455       10.15258394964893
C            5.24111392905993       -8.29915434050063       11.36328344280497
C            5.77274694358547       -9.30562495194245       12.03908798074820
C            6.71597984197572      -10.14769790057714       11.65474749737641
C            7.26381118755355      -11.14887237739183       12.32194509681904
C            7.07438712627066      -11.55966547032348       13.57013601908925
C            6.31546328066674      -10.99609280363040       14.58042539389688
C            6.45148791036661       -9.79936189931663       15.10062158685697
C           -1.80352756594517       -8.13192841510542       12.22314914198469
C           -2.45310053260155       -8.93752410674355       12.98254083565982
C           -3.76600144009846       -9.07133095186824       13.08013305551885
C           -4.66379562047265       -8.42247298881071       12.43778656665558
C           -3.41457349277808      -10.70472415936298        8.68729508522721
C           -3.06613231617536      -11.00280851766553        9.90153603358217
C            3.86295875801399       -4.95214022143268        5.96798478534494
C            2.74405724293918       -4.64701582084780        5.24173838420109
C            1.77581345106628       -5.63871482267335        5.04345188052001
C            0.79102132619431       -3.82254868022784        2.70468367401886
C            0.29140578052720       -2.76688466178289        1.98632808873417
C           -1.04287488540697       -2.40204341739762        2.16769675221625
C           -2.04024256484822       -0.21422794751799       -0.58192866284203
C           -1.58945878156587        0.70578703527755       -1.50282357700242
H           -0.08770320256354        2.14922871968596       -1.97350890753943
H            1.15531259255276        1.79475776589235        0.11855850707406
H            0.34096713726674        0.15687923938804        1.76738033034314
H           -4.21054867396571        0.11870074286027        1.15291095370709
H           -6.30637916361626       -0.41908531344496        2.33402828042768
H           -6.39718228814136       -2.28350681872684        3.93242175335009
H           -4.39022518733665       -3.64638940258037        4.38333047834953
H           -1.95179366222556       -4.73356155672725        4.47694040023640
H           -0.95857802126730       -7.19261526268278        4.07792011249511
H            0.64053307724281       -8.71852017645413        5.52766316727523
H            3.23454295698327       -8.19605849518391        6.75370816338268
H            6.59826430654608       -5.13842953804103        6.59413917465956
H            8.46375890227168       -5.87347260961311        7.88801546171550
H            7.34349489701444       -5.74519172800993       12.65237878459247
H            5.22047643550320      -10.99931689373076        6.43016157374971
H            3.00881255791010      -11.71326580431208        6.01738464801204
H            1.06575685582006      -11.09038118617839        7.19911061707428
H            1.08801431548980       -9.56114700837718        9.09621028999198
H            6.33421709949323      -14.87494298939218        6.96722657138715
H           10.33676409104057      -14.88071974392525       14.36700966768396
H            7.25864786373629      -11.80857121555037       19.24700545492994
H            6.54344180071942       -7.73839985301624       20.73776827162393
H            5.83546837744797       -9.43844380653952       15.87051536358329
H            4.22623411437374      -11.33348709941750       10.29141204197575
H            2.00281884062996      -12.32025313731006       15.53552036282335
H          -11.81147149280306       -6.07259238149285       10.01018387541379
H           -3.76317524879845       -9.75943759478876        8.38699888084926
H           -3.09303218398112      -10.32574292958301       10.70487297680529
H            4.60926921400238       -4.19530191920605        6.13448853572936
H            2.59276985270370       -3.66419110418236        4.83300441672650
H            1.81330389836511       -4.12958735875914        2.57017774577872
H            0.90268458580353       -2.22787166508734        1.28510367815008
H           -2.92758075159305       -0.79137957147033       -0.77513174402564
H           -2.13356232810826        0.85988019472877       -2.42039300515241
