20
 energy: -4.182752121049 gnorm: 0.000831446399 xtb: 6.5.0 (97a52f5)
C            1.37100630733516       -0.23636079530898        0.10856930363713
C            0.90525074920533        1.04274307400825       -0.12298416772329
C           -0.44869220174558        1.27410805503288       -0.24095983984041
C           -1.35507633052852        0.22861670208947       -0.12947863346335
N           -2.77553131253401        0.47089091694006       -0.25183843130806
C           -3.77761042289191       -0.14503577019977        0.47974510096696
C           -4.98386636428275        0.35850502447240        0.07826834118231
C           -4.73594497097695        1.30901907745237       -0.92419931267226
C           -3.38310673389992        1.36894891104304       -1.11401161400200
C           -0.87566316735460       -1.05323974574634        0.10319398918583
C            0.47839881347331       -1.28377340829946        0.22134962558931
H            2.42954470197968       -0.41690176247906        0.20121872647138
H            1.60043051524991        1.86184004486664       -0.20909273568697
H           -0.81781291674950        2.27015454889743       -0.41201038282335
H           -3.61424403689695       -0.88779406468321        1.24379627104500
H           -5.95226869629908        0.07713820759545        0.46157998737740
H           -5.47939391369974        1.89186380024550       -1.44539176775954
H           -2.86015110362563        2.00345632181296       -1.81086663313247
H           -1.57516671173522       -1.86697454485684        0.18206952645650
H            0.84044779597700       -2.28315459288285        0.40016264649984
