58
 energy: -12.855317886773 gnorm: 0.000701537187 xtb: 6.5.0 (97a52f5)
C            0.18200159942681       -2.66325053855636       -0.76900530607334
C            0.30126224025619       -1.28873356871041       -0.70461651400162
C           -0.79948068137483       -0.51393765018824       -0.41287925838142
C           -2.03034047926560       -1.10840565169031       -0.17710288414477
N           -3.18034237928387       -0.29412313191471        0.14457925943145
N           -3.81008157968057        0.44374681501882       -0.75745209374830
C           -4.84137930181556        0.95956603633890       -0.09554811619804
C           -5.82993307885097        1.84505774338447       -0.70976181493439
C           -5.77355150418745        2.13954932139855       -2.07034573651502
C           -6.71057763339884        2.95782306359372       -2.64982488746378
C           -7.73765802164617        3.51763156152764       -1.88713131016734
N           -8.73040534271390        4.36704840692289       -2.49813070186414
C          -10.09921584785274        3.97643763173380       -2.53282200880595
C          -10.52077977383192        2.77027279196439       -1.99539948972825
C          -11.85065017729117        2.39927198037875       -2.02975129445626
C          -12.78174442300067        3.23159810425941       -2.61046075751652
C          -12.38232963609692        4.43002731139055       -3.16542676544555
C          -11.04847476132796        4.81989086756346       -3.14515771722898
O          -10.69135807018736        6.02841858126849       -3.74117678140065
C           -9.34877493169041        6.40216582202118       -3.71178469460703
C           -8.97328957593080        7.60370167939090       -4.30069070447084
C           -7.65992739720232        8.02610694999141       -4.28108239517061
C           -6.69949639530881        7.25501197714005       -3.66458459562453
C           -7.05136631511166        6.05608365958505       -3.07607461240787
C           -8.36169647184593        5.60474945267190       -3.09751364569706
C           -7.78802082621977        3.22670839905768       -0.52225425313376
C           -6.85324863808805        2.40310037846816        0.05327712709526
N           -4.89462907571181        0.57739765226044        1.20733067009360
C           -3.85376956922698       -0.20379150500165        1.38377421566299
C           -3.49588547358330       -0.84074518790950        2.64897817383340
C           -2.22163739786706       -1.37298961341908        2.82976062742211
C           -1.88911458904665       -1.96941747983470        4.01507785612735
C           -2.84555634323587       -2.01697597884767        5.00025743609113
C           -4.07773824512949       -1.46087404803426        4.74934857711118
N           -4.42576247854035       -0.87766400570536        3.61606217638705
C           -2.14404632991024       -2.48960524210695       -0.25115133845123
C           -1.04196714839572       -3.26220641768004       -0.54362605211385
H            1.04389751935903       -3.26857583116411       -0.99705894944325
H            1.25621172156238       -0.82204256370870       -0.88261539589119
H           -0.71979084248464        0.55771281491528       -0.35909734336373
H           -4.98512845871898        1.70815154583863       -2.66146255936790
H           -6.67361930779925        3.17029449756086       -3.70394485378088
H           -9.79479534293638        2.11320825899836       -1.55182913693323
H          -12.15873471303967        1.45909440289894       -1.60281910275195
H          -13.82039156907789        2.94560614043992       -2.63642509143655
H          -13.09846830894548        5.08385631637997       -3.63045964664778
H           -9.73377087013635        8.20112062634399       -4.77122666230263
H           -7.38708292248312        8.96018641435357       -4.74405202293070
H           -5.67442980691355        7.58634796842738       -3.64103880740168
H           -6.30166987689206        5.46063591930448       -2.58708588945820
H           -8.57174825020189        3.66313147756541        0.07183889410411
H           -6.89947097199253        2.17485700428817        1.10351879761212
H           -1.49727058829442       -1.30301887556080        2.04032757060274
H           -0.90803940343949       -2.38724555053746        4.17180971208942
H           -2.63257116658344       -2.47765959889017        5.95089542771188
H           -4.83266445299007       -1.49103992870521        5.52040739803889
H           -3.10233986326423       -2.94434579719030       -0.07028643605158
H           -1.13460647058046       -4.33464140941696       -0.59456629185252
