33
 energy: -6.797622892007 gnorm: 0.000538913724 xtb: 6.5.0 (97a52f5)
C           -0.41762010172860       -0.57411330311948        1.91349205812501
C           -0.33257917786811        0.08718545244919        0.70418042719508
C           -1.34788038845373       -0.04493366053364       -0.22660941557115
C           -2.43924080824498       -0.83085365770986        0.06073548646455
P           -3.69636015885395       -0.98620763018268       -1.21707838715560
C           -3.56860475281573       -2.77378575498183       -1.44083491105779
C           -2.45435674041539       -3.39362286112470       -2.11248815094620
C           -2.48077221135779       -4.56459219122807       -2.82058095252649
C           -1.24126865948369       -4.88323472264063       -3.43512996540454
C           -0.26749272398735       -3.97727062234046       -3.18450280122193
S           -0.83498736751121       -2.72740601703322       -2.13624497749638
C           -4.63568465548792       -3.36561190334635       -0.87251194855217
C           -5.54797202934735       -2.45590401255265       -0.16106193988129
C           -6.68611225752351       -2.82091399202317        0.56584390770975
C           -7.41209446218895       -1.84718829714343        1.22113029279469
C           -7.02127912950588       -0.51884564472751        1.16798824919038
C           -5.89539762871202       -0.14790613919868        0.45229034299660
C           -5.17408108797083       -1.11567797303701       -0.20178242803025
C           -2.52688809293653       -1.49488112888644        1.26213404835480
C           -1.51380814661531       -1.36608824408595        2.19421774191330
H            0.37420089486260       -0.47469052908495        2.63790760747709
H            0.52476307420869        0.70161371585465        0.48253836390232
H           -1.29199860504159        0.45703647563958       -1.18037787273618
H           -3.37369570036188       -5.15874613538613       -2.93806811958028
H           -1.09761678963658       -5.75699483255049       -4.05400005091507
H            0.73818996555837       -4.02643112037037       -3.55724286663029
H           -4.77884348573160       -4.43564690047102       -0.87249967179945
H           -6.97945489645086       -3.85516859797640        0.61033960211446
H           -8.29011706644847       -2.12358642705895        1.78169062078743
H           -7.59669184386284        0.23101980514838        1.68576758395339
H           -5.57987211753827        0.88050194501732        0.40124632174099
H           -3.38236136389767       -2.11777993218803        1.46336442418703
H           -1.57798148464743       -1.88659516311756        3.13554738059826
