35
 energy: -7.405111822302 gnorm: 0.000686833762 xtb: 6.5.0 (97a52f5)
C            1.60307075411992       -1.25433365331711       -1.04822496360105
C            1.40674018476293        0.11076533404379       -1.12304145668353
C            0.17447591098538        0.64965882618756       -0.79494155120485
C           -0.85153173944115       -0.17819656918688       -0.39755396896026
P           -2.41289833731864        0.60223125987007        0.05543941604556
C           -3.54042622016046       -0.75546870814632       -0.32406353848579
C           -4.07936481798161       -1.14120087950499       -1.52652828642008
C           -4.92033762970217       -2.24056892716241       -1.56523787407375
C           -5.21117657673109       -2.94279135016643       -0.40675171732622
C           -4.66743056996236       -2.55884901314004        0.80221707542101
C           -3.82098085132765       -1.45058180355002        0.84885025470637
C           -3.13154629211879       -0.91499878129613        2.03857933773826
S           -3.08839884947629       -1.39521601163079        3.73167890300664
C           -1.96433941408818       -0.10179183237236        4.12271638556490
C           -1.38775083216771        0.22249267143628        5.34531157834510
C           -0.52125175592604        1.28641426013229        5.42016774139457
C           -0.21506209279863        2.03978218173843        4.28497453560563
C           -0.77454890225492        1.73410484388766        3.07120849320468
C           -1.66344538326468        0.65170172570362        2.98044275569126
C           -2.34715075888898        0.17181297258867        1.81150937349268
C           -0.65591764365047       -1.53845695048240       -0.31509798049230
C            0.57288919310380       -2.08053235677525       -0.64375730856607
H            2.56230415806281       -1.67505462375003       -1.30247106414439
H            2.21168428891118        0.75692842312524       -1.43286990717668
H            0.00863246664385        1.71512634312793       -0.84034806477251
H           -3.84104011947948       -0.58987367968550       -2.42041762601788
H           -5.35028960413484       -2.55170199464159       -2.50312394356264
H           -5.86666142441162       -3.79709913316784       -0.45034397331371
H           -4.88175609310044       -3.09998519767037        1.70689809894711
H           -1.62646132664003       -0.36397826083033        6.21556099631491
H           -0.07069091798388        1.54229707548215        6.36518299109705
H            0.46699717249000        2.87043627920118        4.36486345940986
H           -0.54374610849978        2.30502558420848        2.18918269427425
H           -1.46143900725790       -2.17366641024012        0.01270928809462
H            0.72616913967693       -3.14552164401926       -0.58065015354837
