57
 energy: -10.897851263903 gnorm: 0.000782934985 xtb: 6.5.0 (97a52f5)
C            1.00917199958019        0.59935170479945        0.44055339556669
C            2.27897887531828        0.16586355288077       -0.31519591383190
C            3.07439480954343       -0.83908967311381        0.53927600429393
C            1.85238050251773       -0.53932614250402       -1.61778595410339
C            3.14768536632994        1.40271211664602       -0.59408818191456
C            3.65834686940840        2.14347009918138        0.49560677518023
C            4.42589094689254        3.26286040951281        0.32820818938742
C            4.71471181518769        3.70058331840786       -0.96909819647812
O            5.42381693433068        4.75633980942405       -1.47726988305641
C            5.31081444437049        4.62598273006894       -2.84925688414785
C            5.91230341986867        5.56489683944107       -3.77377054344906
C            6.65676077728302        6.64919935607918       -3.40785800131149
C            7.10694513569331        7.42527318281379       -4.49860606697556
C            6.71366386384757        6.94571308868210       -5.71482627748605
C            7.01890296875118        7.56891915723938       -6.98618330200165
N            6.62123882427553        7.08925678607744       -8.15527496857902
C            7.09195458361244        7.96105047203248       -9.07958632023623
C            6.96654728222150        7.96076631573484      -10.47798118058678
C            7.52738026119838        8.97510375204539      -11.21984539700043
C            7.40130678706495        9.03213787219310      -12.75057546317081
C            6.65950015927694        7.80222750533340      -13.31009559932799
C            6.61533043735322       10.29557339602517      -13.14691817637330
C            8.80620451461204        9.07533140481167      -13.38092409742136
C            8.22492290569490       10.00496423110236      -10.54926061545921
C            8.36721440342933       10.03142673238708       -9.18943691800721
C            7.79952762068275        9.00484585815770       -8.42666553311216
O            7.75009074496119        8.73846993149573       -7.08429305302110
S            5.78357556523445        5.48834104447555       -5.50848579944616
N            4.59634124676450        3.57684970617311       -3.22813003634755
C            4.20773348857420        2.97386487876167       -2.07881160572784
C            3.42940389482213        1.82359656717885       -1.87362682475493
H            0.36222491715390       -0.25451895577313        0.63792041808654
H            0.44311731482233        1.32419327192052       -0.14326884125677
H            1.25483224562223        1.05899706260486        1.39651209266786
H            2.49126050978216       -1.74067887480406        0.72306505481672
H            3.34190278142539       -0.41551809100447        1.50581031959880
H            3.99476665615792       -1.12991651622408        0.03441168344360
H            1.24732637121855       -1.41874603255369       -1.40021070939644
H            2.72049907963057       -0.86923298036859       -2.18709678187825
H            1.25602358769617        0.12188467891726       -2.24520061017743
H            3.43054344905549        1.81513093654709        1.49442968269250
H            4.80614361167120        3.81623130561030        1.16771086436239
H            6.86321703158392        6.88930683940718       -2.37613820160361
H            7.69456551310675        8.32424088607254       -4.39241057069616
H            6.42370116816721        7.16017082238212      -10.94152299143538
H            5.64380921234324        7.74495209502581      -12.92078593505488
H            7.18172250028678        6.88067165326501      -13.05591575984494
H            6.59160781527091        7.85371476909489      -14.39617939454078
H            5.62239675077271       10.28684778385872      -12.69900157687130
H            6.49728067965005       10.35827227219216      -14.22799660637713
H            7.12419087419667       11.19876144578543      -12.81409679055522
H            9.38780491296378        8.20340622830356      -13.08427979089462
H            9.35404340677403        9.96413983081913      -13.07267053111281
H            8.74438197251586        9.08515776556395      -14.46847043061716
H            8.65658767692640       10.79994679742002      -11.13147613967320
H            8.90006606236757       10.82256160848812       -8.69368287991899
H            3.06335245016573        1.29576739393251       -2.73266914485336
