86
 energy: -18.397621876433 gnorm: 0.000259971196 xtb: 6.5.0 (97a52f5)
C            1.28543215789193       -0.27595563625125        0.56065786249509
C            0.59889455777248        0.45944810526443        1.50658850413551
C           -0.73807853897122        0.73466971384281        1.32962784280103
C           -1.41882791673287        0.27825026369911        0.19904937361635
C           -2.86031879143260        0.55693234647294        0.01082607562366
C           -3.34689544157245        1.85333751632796        0.14172550356102
C           -2.44917324774610        3.02873474283960        0.22087386661420
C           -2.80414093178511        4.13280002414232        0.99863116939747
C           -1.99886940855655        5.24831878393080        1.05638389273711
C           -0.82690092949538        5.29563663789295        0.32815476674336
C           -0.46885591925137        4.22590821247431       -0.46770374153623
C           -1.27280934350987        3.10976733696082       -0.52736439784646
C           -4.80251044463096        2.14088912935197        0.07369887494944
C           -5.27313464285916        2.91972882168149       -0.98382310191740
C           -6.62691374814484        3.11945168764845       -1.21139418756115
C           -7.09009464333080        3.89515683527979       -2.38437538956905
C           -6.45714400962202        3.76405276839038       -3.61951045807550
C           -6.88928250680589        4.48129178682822       -4.71398840684268
C           -7.96082960687010        5.34373894865448       -4.59740597024510
C           -8.59992122828573        5.48699538916615       -3.38205842129852
C           -8.17065644553407        4.76998991138018       -2.28595741567707
C           -7.53439246793346        2.54035571376880       -0.32552727713331
C           -7.09556988436929        1.80619066845661        0.74997085832814
C           -5.73792747038475        1.59488606119015        0.98597218215740
C           -5.32476281600659        0.84942655920825        2.19808532192488
C           -5.95960400344489       -0.34187749364741        2.54960827051931
C           -5.64546980593844       -0.98952830430435        3.72445219025384
C           -4.69390720945394       -0.46104223356239        4.57439119551823
C           -4.04589264330223        0.71115719654639        4.23852404349926
C           -4.35436759720857        1.35739229832682        3.06182293666170
C           -3.74624228635216       -0.55986070059504       -0.39737534537539
C           -4.75491906620745       -0.31947836103068       -1.32848730572093
C           -5.65027273023961       -1.29092010792744       -1.74668312496354
C           -6.75444239725669       -0.93509777415340       -2.66685765625280
C           -6.55695147864417       -0.01789972038505       -3.69827934379946
C           -7.59689254929478        0.35258921795289       -4.52293041500499
C           -8.85406257645670       -0.18567044999487       -4.33613317625595
C           -9.06846349453740       -1.09732950989973       -3.32180035271979
C           -8.03058717162594       -1.46851176274286       -2.49428262569454
C           -5.49772311840144       -2.58078142458911       -1.24408660703180
C           -4.48986371849269       -2.86527731640653       -0.35510903370955
C           -3.60509013325623       -1.88405675832024        0.09213423672364
C           -2.56516306888597       -2.27493587016693        1.07587969895362
C           -1.63384189196712       -3.26844891635184        0.77442822666759
C           -0.66828273426702       -3.62911664935352        1.68881415140126
C           -0.61878222706234       -3.01406254145229        2.92423468810991
C           -1.54111193945612       -2.03812411027954        3.24429896755417
C           -2.50415376000779       -1.67514509795347        2.33003315887780
C           -0.70713217771163       -0.46281015677238       -0.74574163968885
C            0.63027255800830       -0.73552121472538       -0.56489840074912
H            2.33152382989994       -0.49386048898371        0.70209008713222
H            1.10891677976103        0.81476240234718        2.38712686330004
H           -1.28095581633179        1.29547368370181        2.07073224206056
H           -3.72958245156586        4.11015829574467        1.54718844638868
H           -2.28656897062500        6.08836881836184        1.66754919808927
H           -0.19677841684495        6.16896687333264        0.37468293401547
H            0.44028132216693        4.26536892935042       -1.04551122796116
H           -1.00004986762644        2.28633725469999       -1.16367752787841
H           -4.55925630824069        3.34902786169225       -1.66335587687149
H           -5.63034247031565        3.08155779365512       -3.71495727005305
H           -6.39111362604035        4.36663919127451       -5.66301030623759
H           -8.29771401596830        5.90503004533111       -5.45384362346277
H           -9.43526880264826        6.16202233322296       -3.28976017223057
H           -8.66310795149458        4.88981439569543       -1.33632454786360
H           -8.58911330021353        2.66852546222456       -0.49764330092566
H           -7.81052279195855        1.38892144260361        1.43815106582503
H           -6.70063189735837       -0.75354027996043        1.88606467005795
H           -6.14348407988162       -1.91056343135542        3.98042943231970
H           -4.44922332186823       -0.96886227662916        5.49311707687318
H           -3.29550685032776        1.11938070827308        4.89591828384127
H           -3.85198571839392        2.27199183101735        2.80317272252590
H           -4.86460760293675        0.67057755933572       -1.72635328296030
H           -5.57612816369738        0.39842498166341       -3.85028968472566
H           -7.42907654673803        1.06707950472697       -5.31231195678550
H           -9.66731153954743        0.10652704062745       -4.98045694247021
H          -10.05078823046617       -1.51560913745865       -3.17327555741389
H           -8.20446089800987       -2.16223150011093       -1.68983123704005
H           -6.17332785858697       -3.35497741810967       -1.56442527385488
H           -4.38194287653395       -3.86573780345992        0.02789527543601
H           -1.67046861337960       -3.74072524109088       -0.19226701527981
H            0.05180540950229       -4.39099220860427        1.43808488972002
H            0.13884948288272       -3.29526647857278        3.63753530510128
H           -1.50541323743884       -1.55606038550580        4.20757304936338
H           -3.22211465378281       -0.91278978746720        2.56729550247829
H           -1.22267011638941       -0.82395450846609       -1.61899569560897
H            1.16538106066413       -1.31342002966507       -1.30077061020220
