50
 energy: -10.689539109616 gnorm: 0.000439009125 xtb: 6.5.0 (97a52f5)
C            0.78724307437931       -1.94404414413432        1.54755133054019
C            0.19674649599202       -0.99327430196441        2.35801993714727
C           -0.83528553647231       -0.21938767350984        1.87206460059066
C           -1.27567858629949       -0.39663234185975        0.57609940438447
B           -2.43319160507935        0.48050391541025       -0.00049878798272
N           -3.77090028741313       -0.01794155986910       -0.06208594084491
C           -4.80024311042259        0.63997431190078       -0.70907640406698
C           -6.07843873119159        0.09946204704463       -0.77220085197212
C           -7.09886622834039        0.74338262154947       -1.45180732743458
C           -6.84322920702854        1.98000529575247       -2.09665713107192
C           -5.56891334266904        2.52758530983100       -2.02144529363845
C           -4.54824110840463        1.88283050589950       -1.34340509546369
C           -3.22787009473672        2.45846294484779       -1.29011005445293
O           -2.81600998966789        3.65085950484743       -1.83174303779568
C           -1.48919968188931        3.76607459693132       -1.53127395347386
C           -1.05452040456723        2.67887781339565       -0.81611732533519
C           -2.14879527002264        1.83223451404483       -0.65072008360287
N           -7.85364952063052        2.60392102382477       -2.80396307937127
B           -9.16874218711142        2.06321512689417       -2.94224940806477
C          -10.20938510733882        2.72975761374694       -3.89804861957720
C          -10.83104359198762        3.90886466789128       -3.54061033351100
C          -11.74167532618105        4.49170530934084       -4.39572745504233
C          -12.02975843148481        3.89470729051797       -5.60818708606078
C          -11.40606948395495        2.71448439519116       -5.96466410085704
C          -10.49551705231552        2.13251832832421       -5.10930482997830
C           -9.47250398006445        0.74614596111204       -2.23198242261350
C          -10.56415767804019       -0.10575416108075       -2.07656877307539
C          -10.14967319899520       -1.15625087332158       -1.29746763502656
O           -8.83760411558256       -1.01364943932451       -0.94811199612166
C           -8.41481701088449        0.15921628054484       -1.52292963338955
C           -0.68758838314816       -1.34649838638196       -0.23444979269819
C            0.34422984923599       -2.12069629871728        0.25080746468894
H            1.59434331939545       -2.54874662652492        1.92723881370984
H            0.54303474194602       -0.85632021185519        3.36923841208974
H           -1.30489723036398        0.52615148961700        2.49006713626031
H           -3.97879867246216       -0.91449431453547        0.35603183644386
H           -6.28361928130045       -0.84088226719332       -0.29557261195039
H           -5.36165123643368        3.46397591095229       -2.50489599306206
H           -0.87601811246086        4.61028105815002       -1.82342762674914
H           -0.05891902425588        2.50359100426373       -0.44566231946519
H           -7.62735854381256        3.46821748134201       -3.27699213748650
H          -10.59550509850712        4.36113828909737       -2.59285735222136
H          -12.22823479366887        5.41251648771481       -4.11885864064821
H          -12.74111690887998        4.35056462816114       -6.27710946797013
H          -11.63044019395299        2.24937310451975       -6.91054086005979
H          -10.00013549489381        1.21381601180725       -5.37215855399546
H          -11.54541316264095        0.04275656531323       -2.49408615971345
H          -10.76837904982182       -1.99150513315298       -0.99155210096181
H           -1.04371115038754       -1.46965845032262       -1.24262953469323
H            0.80501872488888       -2.86204522608779       -0.38115912433070
