50
 energy: -10.505603791920 gnorm: 0.000224843195 xtb: 6.5.0 (97a52f5)
C            0.78520271582770       -1.95226616211442        1.46355584913511
C            0.20427266551164       -1.00168219288071        2.28155243679340
C           -0.83430967569359       -0.22801437077837        1.80854358432562
C           -1.29081834825427       -0.40552314416256        0.51810136387498
B           -2.45724629635821        0.46904360600029       -0.04631847421689
N           -3.79355828895950       -0.03549680673581       -0.08696997713701
C           -4.82370707465754        0.61877619518091       -0.72989162321662
C           -6.10477438017900        0.08408113386924       -0.76778905907647
C           -7.14047410302483        0.72038298199701       -1.44099670805907
C           -6.88078402597955        1.94821418734727       -2.10855548061216
C           -5.60347030071235        2.49064018346878       -2.05778083597160
C           -4.56823446870656        1.85532128687038       -1.38304126974765
C           -3.25245129370901        2.41794860952759       -1.34316065505357
S           -2.74812053166099        3.92775509141432       -2.05521566339236
C           -1.11836815491951        3.72330321330425       -1.49946986621452
C           -0.97732015432168        2.56879078535355       -0.81587330478580
C           -2.18305678082894        1.81586215996735       -0.71761571520718
N           -7.89435569743933        2.56812918062034       -2.80907322623686
B           -9.21487871647146        2.03072168363341       -2.90540043607395
C          -10.27203070660221        2.68371644958418       -3.85389514319341
C          -10.88269524538729        3.87157819170856       -3.50615955662220
C          -11.80829580182033        4.44185266030485       -4.35412111193182
C          -12.12234768860815        3.82345765639965       -5.54956503812465
C          -11.50967021047750        2.63429333877158       -5.89619706042778
C          -10.58409760631267        2.06501871297355       -5.04801896769920
C           -9.51061487080818        0.72712316103952       -2.16113040469769
C          -10.71915228766206       -0.01975990587385       -2.05038106344429
C          -10.59506119007557       -1.13666958628138       -1.30389814529455
S           -8.97673038012941       -1.31570458886075       -0.70783636071533
C           -8.45605249414296        0.15737584220210       -1.48214796318382
C           -0.71202925710110       -1.35465412049637       -0.30016649969609
C            0.32637620798331       -2.12857992503389        0.17203259596843
H            1.59699920365785       -2.55705867597083        1.83321296031206
H            0.56299151273324       -0.86488991468007        3.28853900518871
H           -1.29640820637802        0.51778762582667        2.43197921321480
H           -3.99867344042823       -0.92816901852128        0.34142778814325
H           -6.30021528697688       -0.84772652820956       -0.27176609005979
H           -5.40682126720748        3.41979643511994       -2.55827004309860
H           -0.33582472221848        4.43459727333869       -1.68490968493245
H           -0.04947667832724        2.23467591919868       -0.37789000252173
H           -7.67052035963916        3.42253052888348       -3.30150848680409
H          -10.62689370391725        4.34032206729241       -2.57171175006134
H          -12.28619006261680        5.36953041910643       -4.08487426304721
H          -12.84518479931526        4.26956022848063       -6.21288691836439
H          -11.75406741401880        2.15250659211069       -6.82876894074294
H          -10.09663957783390        1.13991692472755       -5.30333485098925
H          -11.63769851705190        0.29212384479702       -2.52298412800527
H          -11.38367084601504       -1.83487510239310       -1.09575883400697
H           -1.08051500164293       -1.47717542722282       -1.30402329469817
H            0.77982360889526       -2.86943870024447       -0.46593789958611
