105
 energy: -22.863621616799 gnorm: 0.000375106404 xtb: 6.5.0 (97a52f5)
C            1.13573946409103       -0.71577246359527       -0.24696876408758
C            0.55866394620761        0.05838519520890        0.73998738951848
C           -0.77241322277062        0.39941937539793        0.66008881732268
C           -1.55743007034637       -0.01884611790361       -0.41755551679334
C           -2.98963251320581        0.33716833810628       -0.51106664986901
C           -3.44259887715016        1.61002865134870       -0.17315052879736
C           -4.88301312479675        1.87445916706877        0.04954128880573
C           -5.48629161111409        3.00991240875979       -0.49421406601213
C           -6.82342448473441        3.26569887654023       -0.28909333175674
C           -7.58637067194243        2.39866023900634        0.46765595224098
C           -7.00623583386831        1.27532642142149        1.02285830342441
C           -5.66943789335294        1.01580032425943        0.81999236720729
C           -2.51613710783374        2.74773606355962       -0.02979092286307
C           -2.70485174997058        3.69964813462251        0.97739509020431
C           -1.85491866957782        4.76562258907726        1.11037223056831
C           -0.77775048881957        4.96726089519803        0.23618205586531
C            0.12120971079701        6.11357156405245        0.35701047273680
C            0.28620555364686        6.82467516061798        1.58388255247490
N           -0.37841855058589        6.37828276221934        2.67163436732276
C           -0.20690003063184        7.07491146757944        3.75735021767715
C            0.59593318429494        8.19705668140049        3.83016631026250
N            1.27705061633460        8.66386124842250        2.82450254644576
C            1.15972916718965        7.96727072886897        1.67319978316047
C            1.90466168631008        8.41701149861426        0.54334431012238
C            2.81304489704517        9.55997875217486        0.61592560985063
C            3.42963996804928        9.94508818850663        1.81413826970926
C            4.30566887573774       10.99642822734734        1.86701768198792
C            4.61221550728168       11.73904895746227        0.72115247566917
C            5.55069578720103       12.87559026697329        0.76633082440209
C            6.73036860562578       12.81189283412123        1.50377826035462
C            7.51515939272588       14.02823740717183        1.80506583998060
C            8.90956153482282       14.01104904854709        1.72601673847496
C            9.64777977317048       15.13527905466453        2.01937998383352
C            9.01362941583060       16.29996402301826        2.40435167794993
C            7.63646268119006       16.33587807220024        2.49842448260026
C            6.89457524558027       15.21403470387292        2.20559723951269
C            7.25814201857631       11.52023338141383        1.99462177511657
C            7.81005183421882       11.41660251863349        3.27336987024847
C            8.31595580437708       10.22021008385314        3.72939620512009
C            8.28921238795631        9.10208534833330        2.91937609179620
C            7.75767414655938        9.18510296911942        1.64774034962704
C            7.25156110809203       10.37947277202650        1.18774262138068
C            5.19700347307011       14.08575083533118       -0.01061278627596
C            6.14173793710722       14.74301626926358       -0.80108690508679
C            5.79905357401863       15.86113519788122       -1.52760284382277
C            4.50626172710091       16.34444619271443       -1.48697604548126
C            3.55461627985773       15.70297764151310       -0.71920138247563
C            3.89337716269907       14.58459410554319        0.00892467843580
C            3.98133495306964       11.37895039035253       -0.47431609291560
C            3.12216823719534       10.31334485424644       -0.52504500590919
C            1.74843089294398        7.71099721322060       -0.68544866161887
N            2.36629946815667        7.97175799926618       -1.82863413985290
S            1.86997001996752        6.88305301164636       -2.94710938328711
N            0.84907849808662        6.02925378625984       -1.99241425939963
C            0.86698788006745        6.55648117252916       -0.77647156062383
C           -0.61327084304202        4.01994855061023       -0.78376873405906
C           -1.44720773649796        2.94124033431933       -0.91148219814307
C           -3.92708732534869       -0.71436207923163       -0.96097753561137
C           -4.96078149152968       -0.43224626846231       -1.85761391116895
C           -5.82277434697879       -1.42008930180372       -2.27668013341708
C           -5.66997141607052       -2.71336301705139       -1.81779061110969
C           -4.64782050017139       -3.01667875188718       -0.94027623809203
C           -3.78405003274709       -2.03132859293349       -0.51818956938854
C           -0.95647879317628       -0.81163249611934       -1.39795560880756
C            0.37469339428514       -1.15227827610486       -1.31334424056107
H            2.17839827476800       -0.98112120687524       -0.18369638463529
H            1.15138306835656        0.39672620559692        1.57407077093703
H           -1.22387024421938        0.99710988323792        1.43279619011067
H           -4.88992974965596        3.68273954797188       -1.08601130862327
H           -7.27544025361525        4.14371492414234       -0.72072617719482
H           -8.63346472976775        2.59912874478495        0.62556237888063
H           -7.60146123723174        0.59942474890425        1.61472128599455
H           -5.21533544883657        0.14176529811729        1.25360490588678
H           -3.52513433448688        3.57278609231702        1.66263517347716
H           -2.01912371009965        5.47122049166033        1.90198845980978
H           -0.73228651288315        6.74188962475685        4.63955284645301
H            0.68189428820747        8.72677345627075        4.76677727200433
H            3.21269917597553        9.39263462895472        2.70898273225054
H            4.76605921296647       11.26908032455132        2.80071716985922
H            9.40226655784604       13.10310303977096        1.42371321504259
H           10.72276888452500       15.10623716969974        1.94842507929614
H            9.59306438514588       17.17923598611435        2.63389699998377
H            7.14141753367956       17.24363453782989        2.80235371776121
H            5.82180931569626       15.23903570433262        2.28656166941503
H            7.82866939353411       12.28859693310535        3.90402200392641
H            8.73402002121774       10.15606213521673        4.72063487591563
H            8.68503752646506        8.16615062771632        3.27834347248896
H            7.73927095098360        8.31359874062309        1.01397124650058
H            6.84444092511191       10.44664340078403        0.19383613168448
H            7.14752633018278       14.36190151164300       -0.83609572415402
H            6.54130615474341       16.35999726024506       -2.12899540681504
H            4.23978030304448       17.22042221617355       -2.05549203464048
H            2.54496770251805       16.07883022290376       -0.68910824599376
H            3.15403297692228       14.08467509340299        0.61053261813389
H            4.20053283737081       11.94086163485451       -1.36570410190313
H            2.67217698705329       10.03945215952361       -1.46091341018630
H            0.18987918412258        4.14934444972887       -1.48353486286045
H           -1.29532526474726        2.23281006253851       -1.70712508486324
H           -5.07543254015709        0.57426588893476       -2.22061282971534
H           -6.61863208887268       -1.18331096072624       -2.96372497807629
H           -6.34633214957601       -3.48565544907520       -2.14588984425217
H           -4.52627358402497       -4.02688502945547       -0.58504938297187
H           -2.98875103028478       -2.26588643461777        0.16805447672747
H           -1.55000075989559       -1.14925252389482       -2.22990538787449
H            0.82392322351280       -1.76070573237476       -2.08112663198855
