101
 energy: -21.776734524448 gnorm: 0.000404975719 xtb: 6.5.0 (97a52f5)
C            1.17964735160058       -0.37195288367171       -0.06754572671206
C            0.58884242738348        0.42308942626882        0.89450507289423
C           -0.75459278763336        0.71366427197514        0.82001113366398
C           -1.53819080931099        0.22050428284263       -0.22606883302253
C           -2.98481647639670        0.52115054465930       -0.30900819726158
C           -3.46796634430551        1.80181728877996       -0.06224488674928
C           -4.90764474615719        2.04540921919315        0.18195802016916
C           -5.55086002473249        3.13868459806821       -0.40081397950564
C           -6.88632855347054        3.37901102706520       -0.16686230310714
C           -7.60784984212185        2.53805293091555        0.65721432203163
C           -6.98793851760431        1.45638714125703        1.25082662235203
C           -5.65259583651558        1.21326385401397        1.01995501781129
C           -2.56319028425573        2.96837127024717       -0.03238698758239
C           -2.72539687685447        3.97832944217998        0.92046854073109
C           -1.88370176911079        5.06242879426379        0.95621583096240
C           -0.84172794009323        5.20147638417957        0.03206480094888
C            0.09075813974166        6.33373975672219        0.08538933193698
C            0.30739356535844        7.03778581190977        1.25628144493810
C            1.20582386140238        8.10169453340240        1.34553061550750
C            1.95624343359233        8.54480430200661        0.27093380814189
C            2.89556264579631        9.66524320186114        0.40102389507804
C            3.42603587385822       10.03678226483149        1.64162197419027
C            4.29276996737393       11.09490267948427        1.75570719916197
C            4.67808501209880       11.83902407396287        0.63632996085263
C            5.59852443007883       12.98793404598437        0.75047826572704
C            6.72119345204548       12.94102868008846        1.56973672330544
C            7.46812834670931       14.16905228976705        1.91972782547520
C            8.86455078273403       14.17132690773617        1.93164567246399
C            9.56665181357987       15.30677549368249        2.26834506210149
C            8.89260543647942       16.46353577088682        2.60692563237893
C            7.51180326082395       16.47989404681470        2.61163406630590
C            6.80621241991636       15.34651927737217        2.27567223997134
C            7.22782116444203       11.65927030005806        2.10762939058252
C            7.68639502780930       11.57254227225248        3.42374443244051
C            8.17783377093780       10.38761348814049        3.92391331792599
C            8.22854067111500        9.26445407738590        3.12197939772928
C            7.78950185919441        9.33106061433407        1.81450026143845
C            7.29853477739525       10.51421235719614        1.31047849612970
C            5.28436986236713       14.19361086151525       -0.05008934175919
C            6.27378586571888       14.86236404259510       -0.77365229705461
C            5.96815343740517       15.97362495500479       -1.52681895621097
C            4.66894714918483       16.43837071133975       -1.58024040487944
C            3.67398317398115       15.78514154627898       -0.88006089287390
C            3.97569578520589       14.67348914206305       -0.12566529647718
C            4.14351071941530       11.47552939251929       -0.60238100888401
C            3.28676670353680       10.41055587319319       -0.71403465836317
C            1.76933286957668        7.86188828903092       -0.98217612599358
N            2.37329123120645        8.11814334463089       -2.13088758394894
S            1.82278211863470        7.05139753033625       -3.24842668992557
N            0.78314288009095        6.22364155040979       -2.28711946704691
C            0.83858296110049        6.74580654528408       -1.07301175926877
C           -0.70628237271789        4.20645548074352       -0.93889406879229
C           -1.53830306459110        3.11744092565048       -0.97113627886776
C           -3.89371243133772       -0.59412944447523       -0.65198776326103
C           -4.95051462768733       -0.42164752072097       -1.54894272999486
C           -5.77962124143002       -1.47147980240593       -1.87401092151976
C           -5.57045443567948       -2.71796608681817       -1.31775749987590
C           -4.52518528929826       -2.91249963999830       -0.43651124337283
C           -3.69381717983847       -1.86506648337461       -0.10896085272720
C           -0.92355405997086       -0.59088450966550       -1.18189944916120
C            0.42043796449170       -0.87951768494309       -1.10352651899492
H            2.23190808260410       -0.59762019372711       -0.00850204297505
H            1.18031570400020        0.81716546027679        1.70473440739433
H           -1.21762016448488        1.32822167063480        1.57249882663097
H           -4.98682882922999        3.79227565918373       -1.04371678266388
H           -7.36924555432604        4.22525359506752       -0.62760835757607
H           -8.65330895312903        2.72704970942012        0.83874129108825
H           -7.55003393436902        0.80146830089452        1.89639971060642
H           -5.16654767472596        0.37457032050680        1.48754191251104
H           -3.52059832742678        3.88749722541762        1.64022549963372
H           -2.04084007426946        5.82846022936265        1.69475666930237
H           -0.21829526028454        6.73610320165872        2.14478129357199
H            1.30231898953328        8.61059310284704        2.28805030314552
H            3.17082370817364        9.46823271334694        2.51815883250416
H            4.68803338561453       11.36622587177537        2.71923664311463
H            9.38831852333620       13.26932279502954        1.66578971984008
H           10.64436335159840       15.29283294280568        2.26755236339315
H            9.44364899200440       17.35185081868213        2.86948458782010
H            6.98543377061873       17.38162700403984        2.87890505418500
H            5.73008770912830       15.35666794774561        2.28529328049439
H            7.64601558577589       12.44881767837627        4.04746982083405
H            8.52469282688277       10.33667934483483        4.94308001099849
H            8.61301107518667        8.33753048779328        3.51521839255235
H            7.83164052325233        8.45565415219177        1.18718013700608
H            6.96363479790875       10.56874879370482        0.28918389950789
H            7.28484736147673       14.49540189085041       -0.73603529859760
H            6.74432242915419       16.48151171971318       -2.07566167995955
H            4.43116198057307       17.30866474283257       -2.16989970668382
H            2.65924489229473       16.14567746826845       -0.92457395049410
H            3.20173193763696       14.16222834881258        0.42044814054900
H            4.42855337742937       12.03624662151025       -1.47581745557212
H            2.90752475303778       10.13150354642422       -1.67890513627540
H            0.07065110621768        4.30498136671879       -1.67347233214021
H           -1.41330953662073        2.36431048135647       -1.72963674300049
H           -5.10823248160585        0.54816065057269       -1.98797194543880
H           -6.59306847852876       -1.32022438339340       -2.56467410605366
H           -6.22057849865646       -3.53882964515154       -1.57309827407805
H           -4.35986988894657       -3.88596770079288       -0.00443897031788
H           -2.87958032210644       -2.01439648524808        0.57903535379241
H           -1.51672723557768       -0.98367982720601       -1.98960498911384
H            0.88139364858474       -1.50219048355951       -1.85274403174234
