61
 energy: -12.992021569971 gnorm: 0.000839267473 xtb: 6.5.0 (97a52f5)
C            0.04032891326317       -1.75529581120234       -2.47469093593780
C            1.05321305947025       -0.93010438728996       -1.65923727462351
C            1.87671107260591       -0.06958540357201       -2.63806275081521
C            0.30320805527923        0.01194137418291       -0.69918169987089
C            1.94624017124697       -1.87990686851923       -0.84556714055675
C            1.35735134311211       -2.74532165808828        0.09468772657237
C            2.09437582580858       -3.61683388038258        0.85502251634252
C            3.48176646235461       -3.65516544943912        0.69931632882266
O            4.44247113678683       -4.42736568784981        1.33396161642149
C            5.67692694395352       -4.06665027234003        0.81200926416134
N            6.86538821557507       -4.56889902594166        1.15737585144647
C            7.89996983473667       -4.03836933308426        0.50211744832823
O            9.23980474305294       -4.35959462231174        0.67099136038940
C            9.97095866872701       -3.56585945409977       -0.19953665218920
C           11.34778278389761       -3.49234642620875       -0.41326197918691
C           11.85140602250648       -2.60545148949047       -1.34514558974397
N           13.27040587708347       -2.50375920803818       -1.55250463169128
C           14.15298609304068       -3.57001229904712       -1.81927121540646
C           13.91836384877104       -4.93656231474104       -1.96923133812492
C           14.97962353796666       -5.76246627131340       -2.24654558268455
C           16.27417362439108       -5.25198877488061       -2.38130284424664
C           16.52229534501199       -3.90790796500447       -2.24304164029053
C           15.45337708280411       -3.05545862965063       -1.96106800891745
C           15.37349780343297       -1.62689919267936       -1.77249606905700
C           16.34006132998228       -0.61962426745260       -1.79192345016854
C           15.94646775025472        0.67541044616989       -1.55635224218590
C           14.60780825032364        0.98479271724856       -1.29815097909012
C           13.64616811763996        0.00505774018389       -1.27705163028068
C           14.02632510383479       -1.31410479912308       -1.52310998475783
C           10.97542491372280       -1.78781698837006       -2.08301716222106
C            9.62059283205949       -1.84041376735201       -1.89085352806928
C            9.11400940658616       -2.73042943003068       -0.94241388871083
C            7.78653051921999       -3.02581928983551       -0.49717202151958
C            6.55777600427906       -2.50851415548218       -0.85331059823874
C            5.48704070559599       -3.05194777083272       -0.17202746546020
C            4.08027887304195       -2.79480397872414       -0.23767934821404
C            3.31769700019197       -1.91368082315711       -1.00373497594670
H           -0.59319356904977       -1.10715988034297       -3.07904686164357
H           -0.60754355595378       -2.34191020604334       -1.82561207944579
H            0.55521642083164       -2.44340703839178       -3.14392052694920
H            1.22834823958711        0.59461771679012       -3.20831358283036
H            2.41638238211681       -0.69349110352149       -3.34930170841858
H            2.59541552148926        0.55143307679818       -2.10499676382377
H           -0.32119312440476        0.71402072271810       -1.25042384414048
H            1.00656280930274        0.58655651049322       -0.09776630454564
H           -0.34138526998300       -0.54424734941456       -0.02063954155317
H            0.28931396865481       -2.72077527831375        0.22209010588250
H            1.62806335564821       -4.27098392579755        1.56957659076268
H           12.01028672642318       -4.11117500959993        0.16086724274651
H           12.91875792003712       -5.32082027825140       -1.87365660169775
H           14.81346779369869       -6.82074559069596       -2.36326349644733
H           17.08820741126071       -5.92351807095570       -2.59914911018709
H           17.51496767255048       -3.50750976824287       -2.34876516102487
H           17.36868629325926       -0.86625528420983       -1.98653547073060
H           16.67994309541998        1.46475957355098       -1.56653762536381
H           14.32787782435402        2.00831641878862       -1.11051165586093
H           12.61652803123467        0.23445566486643       -1.06933144513407
H           11.39366544544815       -1.11848633709337       -2.81393529727640
H            8.94977099510010       -1.21471655669995       -2.45245744418525
H            6.44378094024435       -1.74255275775120       -1.59710414292185
H            3.81677540107389       -1.27321783095450       -1.70558475946366
