110
 energy: -21.306244428498 gnorm: 0.000579611166 xtb: 6.5.0 (97a52f5)
C            1.71126429007993       -1.13671563341691       -1.78731097311308
C            1.50514719572004        0.20642784674489       -1.55412545427066
C            0.27430517403447        0.65045424920496       -1.11607220404703
C           -0.77545054592988       -0.23274040285166       -0.91010877108810
C           -2.13097871619936        0.27549053512111       -0.38584670256725
C           -2.70262167504783        1.38648166197264       -1.28158830600069
C           -3.75119126154033        2.16940451329702       -0.82177351225464
C           -4.32678466142903        3.13086316631220       -1.62660374415548
C           -3.87032174914539        3.31525807320518       -2.91477507159510
C           -2.84260577158481        2.53128313696030       -3.39548014150860
C           -2.26906640471764        1.57186774724115       -2.58665612576543
C           -3.14151436662985       -0.88052647001987       -0.36507769947860
C           -3.85445095251838       -1.21168522518663       -1.50553212196488
C           -4.68597794657701       -2.31259803441880       -1.53682675496396
C           -4.80556716433920       -3.11319787891528       -0.42038858544397
C           -4.10320448703952       -2.80359884074177        0.72064127839862
C           -3.27426177079224       -1.68518150913864        0.77338046165971
N           -2.56222224984148       -1.36318557430168        1.96660544422287
C           -2.41255285628778       -2.34004280523266        3.02138220171701
C           -3.47566728145380       -2.65673391500048        3.86785576751983
C           -3.32748460588942       -3.60287170774604        4.85103931047406
C           -2.11232750682505       -4.26362909715142        5.02993984922580
C           -1.96095982373407       -5.29017028527454        6.07062091820650
N           -0.77576586551492       -5.87499992881033        6.18393147091798
C           -0.71211716334014       -6.79040993227809        7.12371902484575
C            0.63472757364665       -7.50197756161376        7.29249624767889
C            1.74236707310325       -6.46204475470731        7.62851107168656
C            3.11546632327243       -7.16505474115546        7.77761977815629
C            3.47342596629542       -7.88186007275890        6.44970011726410
C            2.38571770798746       -8.93628192470211        6.11759397006685
C            2.30867731001614       -9.97727459818710        7.26432903697559
C            1.94898078405425       -9.26189100857749        8.59225227267384
C            3.03779643890855       -8.20829003970695        8.92233557435489
C            0.57891481735090       -8.55411143714702        8.43954789445754
C            1.01398799082924       -8.23042657771339        5.97080058941308
N           -1.69586646388902       -7.15114547812811        7.92212812760402
C           -2.82275590547025       -6.50069127122375        7.71684542840572
C           -3.99877218424877       -6.88743811972553        8.62034075881912
C           -3.64186761077062       -6.58457499775360       10.10429980326900
C           -4.81039212672524       -6.99612977870523       11.03532903376270
C           -5.08474854010921       -8.51423444323652       10.87617746899869
C           -5.46262140782090       -8.82343909558192        9.40420713390806
C           -6.73385863210791       -8.02356230284343        9.01849120849385
C           -6.45998467205458       -6.50534724723819        9.17529759796755
C           -6.08244558749547       -6.19839854547921       10.64768199289243
C           -5.28736770115037       -6.09630974703140        8.24825245734425
C           -4.29330685325262       -8.40885239588188        8.47574035348099
N           -3.02203074791128       -5.56391649617335        6.81799753096480
C           -1.04651702934541       -3.93412049644715        4.19315189275066
C           -1.19200176629394       -2.98946357185175        3.20818750132660
C           -2.04537839280129       -0.04530497751148        2.13673222649750
C           -1.72376702963795        0.42152480034528        3.40897583503052
C           -1.27443658200789        1.70745977999836        3.59832151159169
C           -1.13893781482001        2.55175016911269        2.51621025359259
C           -1.44454889197926        2.09911951034806        1.24852565458818
C           -1.89535730273157        0.80655591851668        1.03550365097292
C           -0.54520591947047       -1.58187890890807       -1.14191357409365
C            0.68359207518702       -2.03166823214875       -1.57863675591765
H            2.67255151835216       -1.48570632593925       -2.12815075421890
H            2.30609328449584        0.91031046842410       -1.71212440675795
H            0.12042538023765        1.69966663581065       -0.93548402425516
H           -4.11845606548844        2.01193512385658        0.17795450613771
H           -5.13634015215528        3.73466265792120       -1.24989557761662
H           -4.31977201353595        4.06455157639217       -3.54607645890582
H           -2.49061629407438        2.66440901906583       -4.40559269165903
H           -1.48325623080753        0.94770789303389       -2.97467513459890
H           -3.74209354102012       -0.60416265040011       -2.38622253042552
H           -5.23227620707481       -2.55159535249783       -2.43470186566695
H           -5.44761029020314       -3.97878895384836       -0.44208864309308
H           -4.19137579428957       -3.42966427149662        1.59008283531070
H           -4.41354317300494       -2.14566382620643        3.73648435266949
H           -4.15091406696907       -3.85056584626827        5.49758884031063
H            1.47639539353829       -5.93398970163778        8.54981607577501
H            1.78011272120319       -5.70617453077206        6.83769447198393
H            3.89053868369603       -6.41439703008292        8.01322249038895
H            4.45435207546966       -8.36386492745718        6.53273036406024
H            3.55223381816733       -7.15169189248828        5.63598179295153
H            2.64129856761759       -9.44613617723766        5.17183832504026
H            3.26627777956478      -10.50114246254166        7.36435583990445
H            1.55786051649164      -10.74115697460395        7.03132367764329
H            1.89212001820834      -10.00361395763221        9.40855736857138
H            4.00967863959648       -8.69763486365168        9.05440639429267
H            2.80706011895340       -7.71118217372613        9.87162556562793
H            0.29445869545453       -8.05723904302791        9.37240805495832
H           -0.20993643934724       -9.28175569355479        8.22449160611379
H            0.23198288831161       -8.95357324836157        5.71803497128672
H            1.04056820855194       -7.50352982367321        5.15286673816193
H           -3.41765518238616       -5.51865033456248       10.21326818399228
H           -2.72718808991392       -7.12280866819206       10.37260101889056
H           -4.54145031396587       -6.77677884084127       12.08380100453478
H           -5.89382579412881       -8.82468107425233       11.54733042461616
H           -4.19899924162011       -9.09050121445986       11.16752472438072
H           -5.65749313818399       -9.90468258542567        9.29162575485644
H           -7.57618194709139       -8.32333777021810        9.65257380111941
H           -7.02411802506214       -8.25039162686217        7.98609622024082
H           -7.36487036505431       -5.93567862328911        8.89888079901462
H           -6.91198541038762       -6.46253842947810       11.31366763416209
H           -5.90844141648341       -5.12390403506729       10.77685332437029
H           -5.08862255544899       -5.02300401007294        8.32788298992707
H           -5.53915512523314       -6.28721995014612        7.20040473513572
H           -4.53015356016229       -8.63478235769043        7.43113254618709
H           -3.38900294042542       -8.97612288159906        8.71804184945461
H           -0.10641291750241       -4.43932982640763        4.32954705721005
H           -0.37094023157440       -2.74208335248121        2.55825946866064
H           -1.84341863677773       -0.23827725280088        4.25011084903031
H           -1.03312259676786        2.05570382615522        4.58948204369606
H           -0.79033656007682        3.56154230094092        2.65971471584138
H           -1.33281438956267        2.76044154166680        0.40694637026407
H           -1.33772019212012       -2.28811924085701       -0.97005768986649
H            0.84028385798838       -3.08356428720709       -1.75444321364373
