57
 energy: -12.022360376693 gnorm: 0.000545696612 xtb: 6.5.0 (97a52f5)
C           -0.38664150929540       -4.15553765676840       -2.11573695887222
C           -0.81410356669868       -3.23878968672624       -3.05594526589521
C           -1.93916022913675       -2.47982961590102       -2.81967115725031
C           -2.65795474645366       -2.62480824496690       -1.63431272007325
C           -3.86513599127810       -1.80289579864813       -1.37411411465473
C           -3.96272266556184       -0.92603136031309       -0.33496629276991
C           -2.95740397789950       -0.52813059832463        0.63809091841301
C           -1.59523481190375       -0.52207859704315        0.33112740453584
C           -0.66521935862893       -0.09928314753297        1.25429953037103
C           -1.07110851848777        0.33040986198853        2.50259572327080
C           -2.41370816622022        0.33785351072697        2.82481981464339
C           -3.34565696820621       -0.08344763359477        1.90371781210424
Si          -5.63346436697193       -0.16047436964158       -0.45310441521796
C           -6.64626103841600       -0.56943945446603        1.05264559202228
C           -7.06772979956131        0.43255224608126        1.90013664837307
C           -7.74759422842374        0.11684686798177        3.06021368548668
C           -8.00479424423659       -1.20453318656582        3.36883460586518
C           -7.58300858780427       -2.20821542071023        2.51895717888029
C           -6.90266227388595       -1.88798648683317        1.36008917017103
C           -5.51636349810650        1.65970105072793       -0.83054066070700
C           -4.30269733956667        2.30691864382614       -0.74135124621105
C           -4.21437576850766        3.65779774694453       -1.01303183411385
C           -5.34649717240345        4.36149408966970       -1.37334830723475
C           -6.56341838977110        3.71438394535862       -1.46136239416458
C           -6.64624063028047        2.36223154757142       -1.18989969267050
C           -6.17179923345628       -1.12036425028972       -1.92178147613140
C           -7.33893547354060       -1.16917954218509       -2.64546946667019
C           -7.43617885858697       -2.04098946793755       -3.71422055990452
C           -6.36800654361250       -2.85599318597680       -4.04692139160082
C           -5.19699324882905       -2.80903551865032       -3.31902845104370
C           -5.08157311178512       -1.93210041196789       -2.23907075489976
C           -2.21269613606125       -3.55452999304744       -0.69587355147283
C           -1.08741789758098       -4.31202434635304       -0.93623087858163
H            0.49364520211460       -4.74904094417589       -2.30224906805339
H           -0.26675023979713       -3.11672327340400       -3.97629891873602
H           -2.27354154164315       -1.75970997646323       -3.54668416984324
H           -1.27757589893933       -0.84619288185876       -0.64377862882080
H            0.38245075317766       -0.10183080382548        1.00152609471936
H           -0.34167831637735        0.66263343508785        3.22339731870201
H           -2.73207621678819        0.67812938588771        3.79682681256157
H           -4.39303585236998       -0.06966670970000        2.14748461576182
H           -6.85650917996652        1.45838960655769        1.64928688470397
H           -8.07549146418467        0.90083242484943        3.72330843722199
H           -8.53447780355961       -1.45276170962550        4.27428027139912
H           -7.78177116948318       -3.23986561162156        2.75979937797860
H           -6.56045381507648       -2.66010723323500        0.69142117076990
H           -3.42950448140423        1.74858476807791       -0.45161745476985
H           -3.26389682556962        4.16114878088915       -0.94236146057153
H           -5.28046022937376        5.41641530500211       -1.58495416530847
H           -7.44779294802811        4.26317552305577       -1.74151124570995
H           -7.58976353813017        1.84658486092939       -1.25302210718132
H           -8.16262275564659       -0.53248452052739       -2.37178757747643
H           -8.34691115179975       -2.08639001715602       -4.28887331502463
H           -6.45187355888454       -3.53346326401428       -4.88105464104441
H           -4.36826498266262       -3.44616026337369       -3.57272621083311
H           -2.76141367337155       -3.67022370488582        0.22298944433357
H           -0.75338196105979       -5.02763471293037       -0.20263795874287
