71
 energy: -15.740716354720 gnorm: 0.000724561453 xtb: 6.5.0 (97a52f5)
C           -0.34439285374346       -2.78201697345174        2.30421352602452
C           -0.20104295287371       -1.41814151685509        2.14332006236990
C           -1.06404212440411       -0.72527811025353        1.32356576642191
C           -2.09381886053845       -1.38209569144340        0.65638220132630
C           -2.98680929280513       -0.61397730341640       -0.23724231134731
C           -4.36869771019610       -0.80891024858347       -0.23902475557485
C           -5.01302217188321       -1.76050719685211        0.69714315393677
C           -5.76721129433375       -2.83661305110762        0.22086713272239
C           -6.35391233887169       -3.72621736672690        1.09151740776609
C           -6.20251303357487       -3.56470230003567        2.45463343523128
C           -5.46160172376516       -2.50795732029538        2.94609344065834
C           -4.87332375102304       -1.61485721885691        2.08007346784310
C           -5.17190543770549       -0.04013525595815       -1.15293575871551
C           -6.56518445055397       -0.13910653935501       -1.19954177192564
C           -7.30319706785665        0.61293113451646       -2.08997323396217
C           -6.67607826017159        1.48295631119864       -2.95283664278340
C           -5.28972330421559        1.62878174123802       -2.93642167217642
C           -4.53424730115813        0.86625527237903       -2.02168325701849
C           -3.11726003877935        1.01593957682470       -1.96124610837953
C           -2.50086980878739        1.90014773640692       -2.82041817016064
C           -3.20963785733384        2.67082018305329       -3.76666403676189
N           -2.52625764369206        3.49005457255110       -4.56837195099377
C           -3.25776099534536        4.19773764792304       -5.43457410775566
C           -2.59003780756374        5.08704081862506       -6.34011811772443
C           -1.12190508482800        5.24441206544922       -6.31378297587706
C           -0.41176273579741        5.21718394727454       -5.11353189151511
C            0.95434082803667        5.38638286186371       -5.08975507780874
C            1.64736893193222        5.58506411612130       -6.26670804454571
C            0.96685637352172        5.61132073376605       -7.46739098741121
C           -0.40002584199885        5.44402459799504       -7.49262253325729
C           -3.34204708371369        5.80520407987655       -7.24787890778208
C           -4.72043970970289        5.69039913284701       -7.30205670237432
C           -5.40908848000459        4.85164057793387       -6.44879030833754
C           -6.88217609100573        4.76516230142218       -6.52534687635053
C           -7.53907776961347        4.77732414261092       -7.75685272763443
C           -8.91310435233988        4.71032289237389       -7.82566542844627
C           -9.66287200721215        4.63194957036631       -6.66910295178315
C           -9.03269400890871        4.61830885828732       -5.44111430714066
C           -7.65935457980108        4.68395613749906       -5.36999003232656
C           -4.67764236607829        4.07827303205249       -5.49416617545972
N           -5.35543558550646        3.23969590632552       -4.69513743267402
C           -4.62636338373652        2.54721508648550       -3.83719719069614
O           -2.35723979396882        0.29248344683441       -1.05803587810589
C           -2.21357200004481       -2.76187747991735        0.81623586849049
C           -1.35010528826579       -3.45234181202219        1.63684327409487
H            0.33091328640603       -3.32340329433330        2.94630342503974
H            0.58810513972901       -0.89529738915629        2.65847561425752
H           -0.95303825037221        0.33658152655600        1.18508634435308
H           -5.87130700897611       -2.96914054902789       -0.84236965142258
H           -6.92997285516808       -4.55263381470138        0.70853747294862
H           -6.66086664909115       -4.26425078864637        3.13440455610566
H           -5.34178563987796       -2.38383537527108        4.00989880363578
H           -4.29239741896117       -0.79211519701913        2.45973984112510
H           -7.06686496441418       -0.80696243427241       -0.52244215327423
H           -8.37647980257134        0.51827482924039       -2.11073587872023
H           -7.24848422573633        2.07007976504939       -3.64915994753847
H           -1.43424598591722        2.00554219995252       -2.76906668289304
H           -0.95052181759523        5.05734770897000       -4.19642182915979
H            1.48387789636596        5.36195471414327       -4.15137196692055
H            2.71700982221710        5.71594381964530       -6.24881625374933
H            1.50710422611418        5.76161217919212       -8.38777594748486
H           -0.92298276758830        5.44996113237555       -8.43310862191655
H           -2.84357839503630        6.48897525896146       -7.91271700404732
H           -5.27430461235367        6.28346747835653       -8.00899144956412
H           -6.95714490718848        4.82475590667246       -8.66090786585350
H           -9.40434598045567        4.71754589757811       -8.78500072002063
H          -10.73790438967838        4.58017845299030       -6.72548898676671
H           -9.61660668986311        4.55628298425728       -4.53730566473289
H           -7.16630295851779        4.67349641725984       -4.41382280956137
H           -2.99081433382833       -3.28500495702736        0.28728149442035
H           -1.45851260736924       -4.51788956867276        1.75739546971291
