115
 energy: -25.307315947354 gnorm: 0.000388717414 xtb: 6.5.0 (97a52f5)
C           -3.61331457917521       -6.44131206527115        2.57038582359315
C           -2.83985513731473       -5.31923755852347        2.79337431895329
C           -3.08421965901467       -4.16142471693688        2.08867586183658
C           -4.11411147559320       -4.09908562097553        1.15389632643505
C           -4.33242177462228       -2.84853354119313        0.39790931524705
C           -5.61289841331967       -2.36398307782087        0.12915750755718
C           -6.82015422561472       -3.03599931609686        0.66635298174285
C           -7.80947066188193       -3.53219283849622       -0.18777853623464
C           -8.92419195774521       -4.16249114140447        0.31616715865744
C           -9.07864666318667       -4.31343567797202        1.68040632380154
C           -8.11286780154693       -3.83066623776338        2.54170434353876
C           -6.99665301499645       -3.19869870137108        2.04347717497194
C           -5.74554085760964       -1.15795606423766       -0.64725502429453
C           -6.98544337549025       -0.58651952778868       -0.94215257049138
C           -7.07639849215556        0.57279123985042       -1.68527771074267
C           -5.93844274002617        1.19378389012247       -2.14684192844111
C           -4.67487397688524        0.67258942980722       -1.86731496433104
C           -4.58127160295614       -0.51105803292692       -1.10580491208250
C           -3.30393884979990       -1.05227771599621       -0.77603185697350
C           -2.17017717925373       -0.40860637198310       -1.21986764669908
C           -2.20697441069654        0.77156854152008       -1.99563819120131
N           -1.05022889011432        1.31775908295408       -2.37897288174256
C           -1.16979519174666        2.43246688754903       -3.11009206952548
C           -0.00560787671927        3.08069449949538       -3.57154546605675
C           -0.05133531736440        4.22148064793788       -4.33803477085184
C            1.19058431728390        4.84158508245549       -4.85431314549367
C            2.19357579265459        5.29015922443509       -3.99039713834957
C            3.24052263958758        6.04290866881726       -4.46419664909014
C            3.32385746822306        6.37721526201501       -5.81742502472239
N            4.26156798282711        7.36043764086477       -6.27773325546354
C            5.59223007721717        7.38863459703972       -5.74110981877444
C            6.21431978838191        8.59258456867327       -5.41967346897560
C            7.48779950883474        8.60732349528221       -4.89653396932536
C            8.16259508554421        7.42117294230572       -4.68232464178826
C            7.55700283744967        6.21856651268819       -4.99070391227573
C            6.28337250554550        6.20125952639988       -5.51322349791529
C            3.78823270807188        8.40842116604419       -7.13660986793433
C            4.63542298712653        9.05931451708600       -8.02969865266143
C            4.15558452776701       10.05187692932605       -8.85627498303086
C            2.82084768663364       10.40762413800116       -8.81453829346626
C            1.96922627009432        9.76775241432688       -7.93828493868242
C            2.44858973185673        8.78604600564819       -7.10511137783138
C            2.37119210112754        5.85415587177577       -6.69211342404580
C            1.32596930362804        5.10361882467395       -6.22031016604755
C           -1.32402323700675        4.79944730577009       -4.65415748317415
C           -1.41205984141208        6.07055166391508       -5.41337725540769
C           -2.12783853748207        6.14583450765375       -6.61026293547125
C           -2.13808795410497        7.30157215234058       -7.35130637751999
C           -1.44695005803446        8.43592874258027       -6.92433236363353
N           -1.42299001262439        9.62237204214213       -7.72865975147635
C           -1.38308670896390        9.49750250366921       -9.15961551667130
C           -0.60843662179414        8.50794813860038       -9.76126456753856
C           -0.55621095444865        8.39145725645649      -11.13163106556089
C           -1.28014732719855        9.25754100637564      -11.92760030487311
C           -2.05807657123980       10.24015894488620      -11.34655246550646
C           -2.11045200438146       10.35980978614541       -9.97596239879652
C           -1.44979440781946       10.92049111861139       -7.11813413013733
C           -2.10390556799519       11.12304667909364       -5.90525520183517
C           -2.12189089251372       12.36577026068363       -5.31306598428165
C           -1.48954743727142       13.43225370521888       -5.92147300368056
C           -0.84195125871383       13.25094480813648       -7.12770159995084
C           -0.82395372648813       12.00924281031682       -7.72166565109212
C           -0.75783646129382        8.37250425203665       -5.71394716549558
C           -0.73737715873096        7.21480703547695       -4.97726676340553
C           -2.46743818628082        4.16560548161734       -4.22351109480114
C           -2.43682508828584        2.98801943505843       -3.45405114451943
N           -3.59720036152696        2.43451839434303       -3.06307196806555
C           -3.47534813025838        1.33373228510139       -2.33743154487700
O           -3.18683931935527       -2.20671714843917       -0.01810143511914
C           -4.87287151528725       -5.24739392167251        0.92793904713905
C           -4.62752896760988       -6.40353323249405        1.63404622729683
H           -3.42232568039856       -7.34679262551146        3.12279397777160
H           -2.04298599942422       -5.34989830120299        3.51838128659218
H           -2.47968821640952       -3.28544349060039        2.25027758238026
H           -7.67994513908717       -3.42662743196178       -1.25126601026260
H           -9.67696857022685       -4.54193840910191       -0.35532688579605
H           -9.95168051230441       -4.80897506810036        2.07259553760863
H           -8.23253344869357       -3.95075253822971        3.60603091852311
H           -6.24140276377026       -2.82220615077607        2.71166160581242
H           -7.88081083018685       -1.05514809357882       -0.57499650422304
H           -8.04354043379282        0.99528190741636       -1.90324218597963
H           -6.00754278570449        2.09815331444643       -2.72512213855291
H           -1.21429311550720       -0.82395990928774       -0.96462733506044
H            0.94785040056653        2.64969018952068       -3.32937913219568
H            2.10262315376789        5.08862238131064       -2.93704556756460
H            3.97664011619618        6.43818985768958       -3.78647292337947
H            5.67872763804908        9.51291951627425       -5.57334041576389
H            7.95790480678932        9.54574643009856       -4.65172681199432
H            9.15970882979994        7.43395314893600       -4.27351903912469
H            8.08246908101306        5.29264153412697       -4.82308456065723
H            5.80737259407983        5.26845538842352       -5.76034386333963
H            5.66971013636878        8.76667700215043       -8.07434842356054
H            4.82216133418629       10.54802597569689       -9.54258207208723
H            2.44433997515770       11.17616236364467       -9.46944387268310
H            0.91925207534386       10.00464768987286       -7.92124117715389
H            1.78386404992978        8.28889915815990       -6.42168503705202
H            2.44172600762828        6.09122526773960       -7.73947335021596
H            0.56632782825355        4.74890641303530       -6.89551901845021
H           -2.65002632917647        5.27209191933024       -6.96011084777965
H           -2.68255335458474        7.34640432416088       -8.27810166192048
H           -0.03898089882218        7.84221395214692       -9.13640418130997
H            0.05188416650009        7.62511220010130      -11.58384180014992
H           -1.23930499178575        9.16570878856180      -13.00063688971179
H           -2.62615536414042       10.91363910225307      -11.96723006819184
H           -2.72224428232117       11.11711649630668       -9.51789721545115
H           -2.60690212409069       10.29334571986543       -5.44042120780123
H           -2.63170378984145       12.50680531292355       -4.37403813702355
H           -1.50383146258956       14.40477831106231       -5.45725940492867
H           -0.34986920610264       14.08271014680015       -7.60479230625659
H           -0.32040076100109       11.86815502472416       -8.66179646158288
H           -0.22263902640451        9.24178684866108       -5.37432448969690
H           -0.18440671584012        7.17068638119378       -4.05491646471127
H           -3.42357890241744        4.59187353465831       -4.46355871076745
H           -5.65574715382230       -5.22188467412572        0.19054597855179
H           -5.22735122277781       -7.28079832217204        1.45449080270747
