71
 energy: -15.745004257145 gnorm: 0.000754836949 xtb: 6.5.0 (97a52f5)
C            0.35582609892444       -4.11834709040664        2.15961045593734
C            0.64589310576785       -2.76976794891068        2.09936001173492
C           -0.17427543716286       -1.91850297853064        1.39251737404654
C           -1.30655412015856       -2.39806343048367        0.74063098125300
C           -2.15343335285362       -1.45960420526163       -0.02575127163077
C           -3.54664455612403       -1.51749735010815        0.02465063270877
C           -4.24548291645688       -2.48081980021276        0.90877886682503
C           -5.11698357052897       -3.43924180302121        0.38392832571996
C           -5.75751168731321       -4.33533304720202        1.20887318760022
C           -5.54492304967277       -4.29697071581854        2.57297333395728
C           -4.68802400477640       -3.35752182189841        3.11176383540214
C           -4.04498933074141       -2.45883408580352        2.29182081384454
C           -4.30489003849581       -0.58097996232155       -0.76275709561112
C           -5.70168541630866       -0.54730500207141       -0.75298108831029
C           -6.39627994549255        0.37324260299885       -1.50956805402689
C           -5.72032508157920        1.28650735555093       -2.28703562038968
C           -4.32662068412725        1.30447078712035       -2.32186932183956
C           -3.61574519668374        0.36112719524157       -1.55056774420311
C           -2.18995661832932        0.36505077763707       -1.54686368009313
C           -1.52276012633330        1.28945473220260       -2.32075041119002
C           -2.18356757227658        2.25134949284278       -3.11494004818782
N           -1.44347927063319        3.10831562363324       -3.82239566614432
C           -2.14383670830787        4.00218547777387       -4.52976566493257
C           -1.45591937752452        4.96271564851511       -5.29889463112057
C           -2.10006814045325        5.92495778331994       -6.03906911260013
C           -1.29784237326079        6.92779188008945       -6.77869327109399
C           -0.29000374936335        6.52538961276580       -7.65416350089023
C            0.46171980189427        7.45556474046465       -8.33752685800266
C            0.22623559197247        8.80402332680246       -8.15817493434238
C           -0.76334025302462        9.22103317946076       -7.29056265544372
C           -1.51662211049509        8.29392929047968       -6.60522314069919
C           -3.53124181370487        5.94651733432721       -6.04870374021743
C           -4.29138957840436        6.93525762417584       -6.84827504399548
C           -4.01358980333418        7.13691650900251       -8.20011704123787
C           -4.72270479585250        8.06012078898046       -8.93591048905301
C           -5.72673324379319        8.79654168941035       -8.33982927637030
C           -6.02204424845244        8.60512534705958       -7.00493147507923
C           -5.31435114434815        7.68316752025034       -6.26584978716491
C           -4.21374558136274        5.01590718685209       -5.29900162379668
C           -3.56644941755582        4.03257436361143       -4.52869568435850
N           -4.30688114668177        3.15967569288305       -3.82378755376474
C           -3.61260192410492        2.27791319587039       -3.12293849429852
O           -1.46959937520802       -0.53519804505458       -0.78043752746533
C           -1.57439749151605       -3.76511188165618        0.79607807502896
C           -0.75349423297029       -4.61410105761952        1.50400606575751
H            0.99762399564317       -4.78354494818163        2.71375869684949
H            1.51572767230474       -2.38265715879006        2.60435028218817
H            0.04970440480631       -0.86712723030095        1.33409812167895
H           -5.27060059027529       -3.47575660252328       -0.68092314194993
H           -6.42439851195613       -5.07067731614815        0.78935443922515
H           -6.04688849069092       -5.00044039396174        3.21694265503135
H           -4.52213222684598       -3.32895195844909        4.17626089511929
H           -3.37527752385869       -1.72609216143175        2.70793013951439
H           -6.24007092912986       -1.24554573333243       -0.13762095769500
H           -7.47372592736705        0.37966987283693       -1.49032996972852
H           -6.26078195919103        2.00610992172917       -2.87620695102184
H           -0.44978353543439        1.28129777257846       -2.31383167399772
H           -0.38213624883719        4.94733348969891       -5.28324082943593
H           -0.11243971850438        5.47343396520872       -7.79721662216469
H            1.23472335372342        7.12987518286357       -9.01430004329837
H            0.81454653585815        9.53076310417036       -8.69415794627857
H           -0.94784942785957       10.27348048754824       -7.14984116046398
H           -2.28748632030498        8.61559452119303       -5.92649842358150
H           -3.23093821131964        6.56108074283684       -8.66288303470001
H           -4.49224613049977        8.20860502204305       -9.97816595478071
H           -6.28024041493051        9.51991589982693       -8.91598064969464
H           -6.80641961888061        9.17917509847322       -6.53934137466769
H           -5.53684340287112        7.53980677931230       -5.22251603982943
H           -5.28771949928360        5.02533275156227       -5.30455375215951
H           -2.43208650861946       -4.15322485504262        0.27544057841845
H           -0.97749687846718       -5.66750278673224        1.54567226525748
