57
 energy: -11.687587975787 gnorm: 0.000488196418 xtb: 6.5.0 (97a52f5)
C            1.68418988884075       -1.26344003185036       -0.02172160342215
C            1.31982819391489        0.04926978251446        0.20379036229408
C            0.05333000774911        0.48020311926921       -0.12380775761488
C           -0.87773349363864       -0.39679640909814       -0.67335651335891
C           -2.22093800317493        0.10252444483017       -1.03393959562825
C           -3.37324563860140       -0.64365093986788       -0.78577563186296
C           -3.31371019793233       -1.93836562884286       -0.06637651175363
C           -3.77706565967175       -3.11597906904856       -0.66063211024199
C           -3.71875388603696       -4.31508674072405        0.01188052468711
C           -3.19704545771098       -4.36922198111283        1.28957759771640
C           -2.73189529866848       -3.21789704328052        1.89418730422128
C           -2.78876966034454       -2.01592727926249        1.22691337790984
C           -4.64661511598269       -0.10719892835541       -1.19524015860974
C           -5.85333266823675       -0.77426592289253       -0.95442218851531
C           -7.05536209805637       -0.22996517711385       -1.34502621285645
C           -7.09053960940029        0.99606318341779       -1.97661855002705
C           -5.92042509230112        1.70134038942690       -2.22848640364863
C           -5.96321375642964        3.01447167837987       -2.85913632993113
C           -4.69443240681384        3.65881155843233       -3.18465168622513
C           -3.49312619984453        3.06860102734230       -2.70213608028512
C           -3.46188765846916        1.85988053517556       -2.05186201675737
C           -4.68686782792024        1.14482296743569       -1.83193330525286
O           -2.24642890730568        1.34325739730570       -1.62994213420913
N           -4.62723721162713        4.72723051466262       -3.93002717654456
C           -5.84589168765010        5.13549458952275       -4.49936510431771
C           -6.12630945769222        4.46509146003931       -5.86130932846981
C           -7.31604419855695        5.14214877780173       -6.59773924905735
C           -8.23243439205441        5.94518926325849       -5.63875075410748
C           -8.42191340419493        5.23235104662747       -4.28459764387464
C           -7.07223543515779        4.90204878168758       -3.55660517518478
N           -7.10889411517497        3.58671417819680       -3.05639377671913
C           -0.48648486821241       -1.71385062193536       -0.91228535877718
C            0.77979770248820       -2.14258572744628       -0.58352985097396
H            2.67509017634975       -1.59997292556294        0.23593409291764
H            2.02806658655053        0.73790924471165        0.63474917626786
H           -0.23526108686943        1.50414804867105        0.04078086744343
H           -4.17038323158985       -3.07401815132436       -1.66185922018347
H           -4.07945017188079       -5.21429260456309       -0.46013636136243
H           -3.15228642309836       -5.30950594214556        1.81430960845511
H           -2.32299383718867       -3.26088433125098        2.89039086540801
H           -2.42697674085393       -1.11680264944709        1.69512767550169
H           -5.83769560359214       -1.72121183506459       -0.44548389891784
H           -7.97333673024980       -0.76077257263330       -1.15306553471067
H           -8.02927458849472        1.42741144773036       -2.27660532115635
H           -2.56479536748532        3.57298193298269       -2.88944735527766
H           -5.75820948014464        6.22160633800669       -4.67398855221021
H           -6.35137292117190        3.40993991724580       -5.67379975932591
H           -5.21704382196440        4.46781428940484       -6.47275901524649
H           -7.90798924732581        4.38637524350360       -7.12817641811764
H           -6.93064896797006        5.80751370802331       -7.38066126376460
H           -9.20734124383051        6.13016910769241       -6.10983401136750
H           -7.80550999110796        6.94030394867665       -5.46634812762685
H           -8.94378849839107        4.28441125974651       -4.45103847969406
H           -9.07897707905865        5.81206018964803       -3.62489564979680
H           -6.95417280070464        5.56763252535840       -2.68564793965753
H           -1.18736323584046       -2.39574153941215       -1.36076677725224
H            1.06504191978142       -3.16591784449263       -0.76519955892792
