85
 energy: -16.576976760214 gnorm: 0.000378976600 xtb: 6.5.0 (97a52f5)
C            0.36614147001134        2.64831890972555        0.84250360549267
C            1.44817100217415        1.56721976068846        0.65208194307723
C            0.92150519059727        0.24548803040179        1.24215262183839
C            1.70249445075319        1.39651187140223       -0.85727889808992
C            2.76287187289824        1.94743040910877        1.35107986472148
C            3.85913452847721        1.06838358145841        1.27943739818474
C            5.05803538207425        1.33761279292439        1.88850865138621
C            5.20771733142946        2.52511564339629        2.60816825814802
O            6.29348636286364        3.02380173852942        3.31250468243102
C            5.91212162447202        4.24469554042098        3.85269971728227
N            6.66330699014310        5.04830037418013        4.60963716161511
C            6.05012474668346        6.16756552996610        5.00304245790601
O            6.58991318224207        7.16750068298892        5.79961028906145
C            5.61431769026316        8.14056506839827        5.96352124876453
C            5.64681206198912        9.34368336159395        6.67717491187172
C            4.53871106125281       10.14768919236284        6.68364231979856
C            3.36845979906485        9.79538595009493        5.98801882293666
N            2.22949438636692       10.67996689818541        6.01200163450093
C            1.91048910375878       11.64486073072428        5.03702665147323
C            2.51668117063874       11.95481759319458        3.82258231128294
C            2.00415636629979       12.98365664322807        3.07088553385259
C            0.88805800108694       13.73492501722158        3.48965252824490
C            0.32542203067356       14.89627130230324        2.65469070463145
C           -1.14217526460120       14.60036476933179        2.29321668639838
C            0.40440559722480       16.19709160885854        3.47580543645143
C            1.11534978020243       15.10014039074989        1.34716043154430
C            0.28943885355427       13.42061580273879        4.69490500051928
C            0.79520089624617       12.37753172819293        5.47210000879178
C            0.40862591148661       11.84587892062783        6.75715790560754
C           -0.60897470837061       12.18743706511512        7.64910285537566
C           -0.73798399111002       11.50246250856449        8.84238843843366
C           -1.85961372122776       11.89887516882015        9.81556350336651
C           -1.67036790397495       13.36808996657773       10.23729974222919
C           -3.22258478347697       11.73174180868674        9.11796737309716
C           -1.85481488309172       11.02541859736885       11.08532189419289
C            0.17100216967224       10.46504771112375        9.13029259301038
C            1.17908278028890       10.11543825525655        8.26559063933144
C            1.30420333600711       10.81015705045729        7.06556332463519
C            3.31915534847026        8.60969348529335        5.28131610609552
C            4.44043167485001        7.78277304725379        5.27211212763911
C            4.71011371889760        6.51693663967056        4.65773343985801
C            3.93510852381714        5.68300051363963        3.87714326397183
C            4.56447523283010        4.52144153805843        3.47457263210002
C            4.12074162487353        3.41418629689160        2.68141724898509
C            2.90679543578684        3.12584752513549        2.05747360711520
H           -0.55784711941592        2.36225095536445        0.34092692921375
H            0.68627361902389        3.60179638457574        0.42388698460355
H            0.13669951029374        2.79193216672805        1.89777467376195
H           -0.02315100393063       -0.03876180171786        0.77981160893473
H            0.75680742214780        0.34184529372480        2.31478285352299
H            1.62712831605390       -0.56859709473058        1.08380120139084
H            0.78056535905858        1.14748748902218       -1.38171511952323
H            2.42014084037633        0.60086294169557       -1.05124384314764
H            2.09748350130852        2.31627243516361       -1.28731952443249
H            3.75083259865175        0.15051493299690        0.72849450806339
H            5.88505002278058        0.65330464488241        1.82652019759828
H            6.54121483562089        9.61653615098640        7.20772902012569
H            4.54699663432627       11.07722869038892        7.22567064138968
H            3.37199857339690       11.39041889678086        3.49621830212825
H            2.47705387719735       13.21926859436109        2.13452187668145
H           -1.75814999976222       14.50193094483695        3.18577466790323
H           -1.21959757922696       13.67179106081146        1.72872396969432
H           -1.56276325938209       15.40098527014409        1.68563195577036
H           -0.18682604227209       16.12679879970877        4.38756786684404
H            0.03052634445863       17.04401237143423        2.90140505468609
H            1.43422949186887       16.41047170255042        3.76024551219193
H            1.07459128782247       14.20958822685975        0.72095799183843
H            2.15945502227157       15.33434457320587        1.55180797478623
H            0.70050082399713       15.92654001566160        0.77078183647348
H           -0.56006012423586       13.97432132051879        5.04875085236921
H           -1.28129710417275       12.98615309404315        7.39717495405723
H           -1.72069643776905       14.03636885491790        9.37897982422929
H           -0.70148583353240       13.50927147002453       10.71508561447701
H           -2.44240995580794       13.67368132910528       10.94268857715715
H           -3.30136460157085       12.37434114162636        8.24238970102797
H           -4.03920619644679       11.98720384816603        9.79241166797669
H           -3.36392134850978       10.70200208077484        8.79154267375811
H           -0.91558026062645       11.12665095302034       11.62800888126086
H           -2.00318953416925        9.97457273180887       10.83920401582911
H           -2.65744510175284       11.32143893503772       11.76015014167644
H            0.07936994557549        9.92540220228952       10.05566663641520
H            1.86862989906277        9.32267830395884        8.49521472043426
H            2.42932172193132        8.33227603277976        4.74806580178643
H            2.92246921154350        5.91715069747632        3.60712198761843
H            2.10124120931215        3.83016633810429        2.14174813024679
