56
 energy: -11.896944398008 gnorm: 0.000407840904 xtb: 6.5.0 (97a52f5)
C           -0.15444010161661       -3.90535939654095       -1.99352741055683
C           -0.61577991754397       -2.98293157473067       -2.91172930184009
C           -1.78263529225932       -2.29252750272477       -2.67014161275279
C           -2.50867280582872       -2.51143699139900       -1.50021612065617
C           -3.75696888606655       -1.75441828499931       -1.23394470659047
C           -3.89081556317115       -0.83439083151424       -0.23299962963398
C           -2.92609982108632       -0.31218386568845        0.71555476214939
C           -1.55641621127613       -0.43268862750427        0.47658096915740
C           -0.65554948308364        0.08389617427747        1.36645612688942
C           -1.14442470483925        0.72011882311676        2.48291202830848
C           -2.50499106939426        0.80964554772133        2.64604063787052
N           -3.39920498858848        0.32249197187857        1.80246425026924
Si          -5.59839406894278       -0.16430464842027       -0.37384440812206
C           -6.61290988463188       -0.49742387092284        1.14900438189314
C           -7.36090235408496        0.51271972067687        1.71390012143865
C           -8.12952299871730        0.26131539090618        2.83350307854186
C           -8.14769516404784       -1.00463208503159        3.38499376476541
C           -7.39848557186645       -2.01676650635948        2.81790464897179
C           -6.63121446380663       -1.76091810697184        1.69807372710853
C           -5.54651438155639        1.62580197371966       -0.88012059166487
C           -4.72919267965858        2.49053418215840       -0.18608709629830
C           -4.68188340108235        3.82673229983591       -0.52718247526614
C           -5.45702202555276        4.29620605312051       -1.56915724069626
C           -6.27590942828373        3.42996333646429       -2.26672895374902
C           -6.31975120604315        2.09370406469809       -1.92003722892641
C           -6.11417463214846       -1.24946597206363       -1.75939365090755
C           -7.29679665047626       -1.42453874903510       -2.43656622555485
C           -7.36422905852866       -2.36768283453951       -3.44519375007381
C           -6.25149644850104       -3.12690782565112       -3.76346394749058
C           -5.06589509169581       -2.95513832970445       -3.07954206547886
C           -4.98067698962970       -2.00605095757182       -2.05928100434791
C           -2.03083625913423       -3.44859711748216       -0.58522390036133
C           -0.86372160583721       -4.13742341241386       -0.83151328434588
H            0.75947447344866       -4.44415239656981       -2.18390408960458
H           -0.06157959895068       -2.80178529281396       -3.81830987224605
H           -2.14420426845014       -1.56840136857971       -3.38007443021610
H           -1.21204053418094       -0.92258864586410       -0.41524438708655
H            0.40549346749841       -0.00373122659323        1.19718060697318
H           -0.47314384528417        1.14109767341513        3.21360626518808
H           -2.89542703309172        1.31019894540586        3.51889791150713
H           -7.33526221930656        1.49543698792216        1.27424173888343
H           -8.71349617459921        1.05224458467605        3.27521036716172
H           -8.74713414589031       -1.20268051734977        4.25870726244690
H           -7.41240835458761       -3.00509202742542        3.24765870090463
H           -6.04188182198218       -2.54025601371282        1.24481511219592
H           -4.12428062791932        2.10546843438749        0.61620062380220
H           -4.03975273408850        4.50044658912368        0.01637561828334
H           -5.42121494872703        5.33900177426673       -1.83967196647361
H           -6.88008560776044        3.79520236635655       -3.08113470917433
H           -6.95135307582121        1.40778894604814       -2.45800296055153
H           -8.15631946855681       -0.83343915362384       -2.17082366955407
H           -8.28697802829726       -2.51343191879156       -3.98261008083039
H           -6.31301737197249       -3.86112004287125       -4.55007953884403
H           -4.20259016486409       -3.54983733524573       -3.32049548286051
H           -2.58538767961875       -3.62095688566549        0.32114830115109
H           -0.50240702802446       -4.85684552375658       -0.11487521311617
