77
 energy: -15.296981512923 gnorm: 0.000766632835 xtb: 6.5.0 (97a52f5)
C            1.83616432771900       -0.61111162200390        0.63617210651841
C            1.28769265722912        0.65541870516295        0.69403517344528
C           -0.05470472586764        0.83851010620292        0.45263072219370
C           -0.87965580685101       -0.24667114598871        0.14634053173078
C           -2.32028266701816       -0.05305115688208       -0.11196563937416
C           -3.31465425174625       -0.69382118205468        0.66115023549830
C           -3.25782199170256       -1.41926083654625        1.90167924427412
C           -4.54077051529662       -1.55238241737308        2.38965423142644
C           -5.44832812428921       -0.91168388703677        1.47508293141243
N           -4.66434136228077       -0.49188400098680        0.45577229904448
B           -5.30534213041474        0.36735542934090       -0.63073070662473
O           -6.18609805162327        1.37233572911434        0.03409063511973
C           -7.08558773715739        0.81164549449380        0.89985634982809
C           -8.33283479426516        1.42088514669509        1.11844430951822
C           -9.23956976227485        0.87640410924326        1.98722830172933
C           -8.93818762001129       -0.29117283433437        2.68223136169140
C           -7.72282408029619       -0.90595162803167        2.51079785432922
C           -6.77872036669517       -0.38123403546141        1.62722172379733
O           -6.16334782626442       -0.38127863436869       -1.59572629616999
C           -6.53533697693177        0.36677817531088       -2.67992938973162
C           -7.75813904540973        0.11633909058134       -3.32574541074046
C           -8.14379530389836        0.85242947266534       -4.41336591107998
C           -7.32323470908087        1.86070763369740       -4.91047073537561
C           -6.11184303390730        2.12276823052825       -4.32006022404913
C           -5.69162707811952        1.39576224730873       -3.20545449678536
C           -4.39424541193056        1.54595560062951       -2.59913346320658
C           -3.09883112124738        1.89742862364347       -3.11809616468797
C           -2.13568565278737        1.44039720849250       -2.24396691136146
C           -2.79212521105082        0.79184402332958       -1.14111548209802
N           -4.13489792114887        0.96352486004759       -1.40686511131424
C           -0.71356320247997        1.55658709206345       -2.75089882140414
C           -0.63803500796538        0.76428147509324       -4.09599858411384
C           -1.73381580622345        1.28848587311018       -5.09176863369103
C           -2.55678241736323        2.43815017342562       -4.42538623370372
C           -1.55768470290118        3.58810946468972       -4.07276910573003
C           -0.46077825360967        3.06352103522181       -3.07806428321319
C           -4.62329897457091       -2.09952384338940        3.80019691326820
C           -3.89978930644873       -3.48562737232263        3.80418881890358
C           -2.43912915213361       -3.33248792311716        3.24680428547332
C           -2.16713231872291       -1.84224559540464        2.86331735078754
C           -2.33848643670781       -0.98378681015616        4.15796582803577
C           -3.79916599696309       -1.13644076671661        4.71509385141814
C           -0.30629949493568       -1.51961933553367        0.09265198850387
C            1.03673125525857       -1.69677809450575        0.33528992324560
H            2.88778016703815       -0.75211091104519        0.82579574776149
H            1.91200480311153        1.50190881244305        0.92929912947495
H           -0.48795504810046        1.82271875886127        0.50236782635637
H           -8.56112139644216        2.32260624983544        0.57866877693920
H          -10.19446121000989        1.35386284434686        2.13478499980505
H           -9.66105941601982       -0.70997483087074        3.36304745750636
H           -7.49471268060138       -1.80994500493455        3.04660677658265
H           -8.38904755430990       -0.66308106484391       -2.93715799520977
H           -9.08969437884778        0.65115283215378       -4.88925639129716
H           -7.63929701359175        2.43407569036877       -5.76652861991942
H           -5.48237230348884        2.90507682189122       -4.70480412604582
H            0.00015993502023        1.16895517951940       -2.00970194061675
H           -0.77533408211790       -0.30549239274066       -3.90122011576969
H            0.36195895315579        0.86740331134568       -4.53203276684185
H           -2.40821809264820        0.47537224089460       -5.38385623582162
H           -1.27383079255564        1.64929336138617       -6.01862967773588
H           -3.37131999700968        2.78780959626126       -5.07604282585121
H           -2.10566089410293        4.42859261178710       -3.63197858321717
H           -1.09658277233774        3.97377897284832       -4.98902358712676
H           -0.47009513286842        3.64804412907543       -2.15114435754202
H            0.54060798041945        3.18802012780267       -3.50516337077470
H           -5.66886510982073       -2.18165516367527        4.13067474586724
H           -4.46952833854667       -4.19993544983847        3.19905898921784
H           -3.88485620866804       -3.89378968253360        4.82102482613310
H           -2.29324767809589       -3.97118779560664        2.36827118303571
H           -1.70460501510703       -3.66512049071212        3.98893018795129
H           -1.17297693761066       -1.70650668180543        2.41361921914084
H           -2.12018648612244        0.06655996001838        3.93388587420427
H           -1.60306510291899       -1.29306777924013        4.90918512351757
H           -4.29592962200138       -0.16072712876506        4.76359474968633
H           -3.78395961094262       -1.52061458403989        5.74121905863116
H           -0.93231357324133       -2.36192999850232       -0.14692631778225
H            1.46558071976263       -2.68462441956739        0.29067687299683
