61
 energy: -13.475852013644 gnorm: 0.002394263671 xtb: 6.5.0 (97a52f5)
C           -1.51716669517860       -4.88826202364523        0.64712395445336
C           -1.78443579388338       -4.11325174250848       -0.46421599441413
C           -2.37276466564557       -2.87932868968482       -0.31999229521087
C           -2.70938369753630       -2.38382853774898        0.94434134708751
C           -3.30795570230618       -1.12536982507877        1.09627326612597
C           -3.82337546850284        0.06359229287399        0.72502021819564
C           -4.44316277132294        1.06072757741366        1.59625104978698
C           -4.60339617423544        1.10109948954700        2.97332783326802
C           -5.23521473053769        2.19231887385874        3.53455925388820
C           -5.69893577599634        3.23399403723762        2.73959242344198
C           -5.54507121167103        3.20425209852231        1.36892179242379
C           -4.92107008836812        2.10476454750683        0.78799530566282
C           -4.56263700716063        1.81086588858909       -0.59538870619006
N           -3.94442520333556        0.56287040825415       -0.54839085147271
B           -3.81099576673184       -0.43856097564816       -1.68239535367882
O           -2.67890400866332        2.59779950839792       -2.60879721583541
C           -3.85839465086444        2.86586775744392       -2.77624984741466
C           -4.30156693270279        3.54444250629829       -3.97577447531766
C           -5.55588502997299        4.02405977090028       -4.08292921428067
C           -6.48359638149139        3.86529456500997       -3.02837687131818
C           -6.15213146765797        3.17841991917974       -1.90557452188720
C           -4.87608869670914        2.58334149873058       -1.74578358265638
O           -4.80484096745758       -1.57632210179958       -1.73119385943099
C           -5.53295334535254       -1.92009059791190       -2.84521118010558
C           -6.52318370308215       -2.90677178072538       -2.69321178293423
C           -7.26587943477624       -3.34718096756339       -3.75459676756468
C           -7.05418211689281       -2.83235149767255       -5.03281424138266
C           -6.10308198488362       -1.87058027284196       -5.24175362406783
C           -5.33953988198258       -1.37484571950576       -4.17538898569379
C           -4.28759527475508       -0.38853882607005       -4.35218998172910
C           -3.00084745741331       -0.58981356958884       -5.03173377689215
C           -2.67851219137495       -0.87374042172756       -6.36163489024083
C           -1.35656665625038       -1.04155125889538       -6.70533428934774
C           -0.34015615167855       -0.94828893360397       -5.75050657965372
C           -0.62215894411093       -0.69082745933067       -4.42926768706922
C           -1.95494843971066       -0.50490028175818       -4.04782665755010
C           -2.54473859953639       -0.31408947873480       -2.75315602025636
N           -3.81627350192778       -0.00059650305034       -3.09575331737562
C           -2.43321497198122       -3.18812864250220        2.05623051900417
C           -1.84421626130748       -4.42233352251809        1.90560412077063
H           -1.05559229343285       -5.85516834607685        0.53193917098748
H           -1.53338227035466       -4.47749744098629       -1.44712878202368
H           -2.59517740342317       -2.27922620634749       -1.18349159245391
H           -4.23475982613551        0.29252949019460        3.57924529505397
H           -5.36642387453026        2.23842618987748        4.60302679532815
H           -6.18131204494781        4.08005629208803        3.20076097606084
H           -5.88046788589750        4.02054244529212        0.75459123285259
H           -3.58431082913241        3.68695981776790       -4.76383898015628
H           -5.85703137846613        4.54619791862846       -4.97629813991398
H           -7.47175873168050        4.28268576475756       -3.12936612105973
H           -6.88524112157912        3.02770059298396       -1.13251723947648
H           -6.67770906195678       -3.31742719992810       -1.71113235272422
H           -8.01722680016240       -4.10485154020329       -3.60482814137677
H           -7.64183548666485       -3.19674243631401       -5.85945451415256
H           -5.93431434947161       -1.47547180774563       -6.22835505093379
H           -3.46083161549686       -0.95011806217629       -7.09567369869453
H           -1.09966707640080       -1.25235181906621       -7.73041450550443
H            0.68388110721285       -1.08896812581479       -6.05512547944692
H            0.15703567409408       -0.63575247330157       -3.68968427775969
H           -2.68973098346904       -2.82251071470399        3.03541258641409
H           -1.63820594308326       -5.02930944849282        2.77207430568737
