51
 energy: -10.958878357715 gnorm: 0.000673199443 xtb: 6.5.0 (97a52f5)
C            0.02576645139549        1.70334813654508        1.40051557135648
C           -0.42767523075421        2.51154073932171        0.37719529084548
C           -1.64175289224709        2.25449668789127       -0.22151682335562
C           -2.42634279244625        1.18282780135486        0.19715155569257
C           -3.72276045618763        0.88751724218964       -0.43546100487175
N           -4.14280719237940       -0.39323983871123       -0.43569822205410
C           -5.42222737085006       -0.63722008457586       -0.82812668982468
C           -5.95836405160463       -1.91664828572386       -0.65354337199627
C           -7.26745682085091       -2.17431235888011       -0.98757196152118
C           -8.06877780377597       -1.16894953450232       -1.47657154561193
C           -7.55660577867964        0.11980869448334       -1.65637310623838
N           -6.23579734503875        0.31798475726421       -1.36847388400478
B           -5.60644424945809        1.59728153071688       -1.84853738387287
C           -5.11909180347723        1.40437209899376       -3.36833846379518
C           -4.12741593817093        0.48750481000388       -3.62417478960969
C           -3.67827010006529        0.29243521003390       -4.91312443822164
C           -4.22937823874130        1.02005948136018       -5.94921452282434
C           -5.22946059063020        1.93711872734453       -5.69275244513401
C           -5.67301994055374        2.12518179091240       -4.39989946579325
N           -4.40656521521506        1.88481079161537       -0.97886673543478
N           -6.65295924011714        2.68327768649944       -1.77834640088418
C           -7.92370471851901        2.37960581191832       -2.00418118650784
C           -8.88703794363101        3.47521666542192       -2.20506403912135
C           -8.48913477481273        4.70980765901709       -2.71221366980825
C           -9.40789146053169        5.71849177805723       -2.90482383071068
C          -10.73811885016747        5.51355266617907       -2.59744230550995
C          -11.14946541326034        4.29350832484985       -2.09939435398550
C          -10.23276593902147        3.28348604975593       -1.90706721564191
N           -8.38834863091500        1.11568868485624       -2.06589640689033
C           -1.95009393406352        0.37275384687469        1.22348413097604
C           -0.73648402175035        0.63213714657418        1.82131652645918
H            0.97541925757543        1.90642084905818        1.86787643345443
H            0.17095407962198        3.34333624861040        0.04348706546309
H           -1.97938501632246        2.87073077088449       -1.03586500215148
H           -5.33241297198894       -2.68924928220514       -0.24347826552654
H           -7.67182996961989       -3.16372946589591       -0.84956753349984
H           -9.10161619186775       -1.35385372277680       -1.71282547150609
H           -3.71155666659827       -0.07328723766528       -2.80687041436408
H           -2.89985468273000       -0.42642910253810       -5.11059978023982
H           -3.88047319580608        0.87112352763947       -6.95794676545409
H           -5.66351952876361        2.50443187481468       -6.49987595524336
H           -6.45840435388250        2.82723252605691       -4.18528100538251
H           -4.10176947268202        2.84530262930986       -0.92011674958991
H           -6.33364350906282        3.63408439501681       -1.66420805660919
H           -7.45793258334662        4.86853095740574       -2.97334121609475
H           -9.08790461790057        6.66888051801999       -3.29994564386735
H          -11.45517216973399        6.30390465948707       -2.74857127581888
H          -12.18797465014777        4.13125470234404       -1.86129454780148
H          -10.54646297126517        2.32874141405563       -1.52233750891093
H           -2.54874373693522       -0.46183578832153        1.54438778101208
H           -0.38154476204031       -0.00210519094892        2.61705510002281
