57
 energy: -12.546813307768 gnorm: 0.000663676514 xtb: 6.5.0 (97a52f5)
C            1.75917018339665       -2.04244288708063       -1.53668123028536
C            1.80548997136653       -0.66431767072748       -1.48727961281395
C            0.77440912738353        0.04153318468772       -0.90133090380808
C           -0.31668044212023       -0.62167324210799       -0.36025495880938
C           -1.44130547542074        0.14423431832439        0.30247414770375
C           -2.81390621549728       -0.26038282675061       -0.19643613904866
C           -3.31832252637223       -0.21549955061499       -1.49013051425679
C           -4.55896311009450       -0.74034747499040       -1.73867336825663
C           -5.27042074669576       -1.43092559412912       -0.73790166015008
C           -6.54804873904287       -2.00691080103988       -1.02243555017267
C           -7.18626156358178       -2.77616609090456       -0.11671887944110
C           -6.57053204893125       -3.11213668535347        1.12785694887218
C           -7.17273190104319       -4.02449855812017        2.01196692864364
C           -6.52527005562133       -4.43367001692819        3.14462416789108
C           -5.24560538615217       -3.96441688209809        3.42273385105458
C           -4.64621325735961       -3.06311760163701        2.58648563190338
C           -5.30561021902592       -2.56976212703664        1.44802835623430
C           -4.71014434531183       -1.58547658837206        0.55650408671199
C           -3.54027551805751       -0.81921068186896        0.85505429943061
C           -2.82273722658961       -0.51572448996026        2.11940907698110
C           -1.52829879915076       -0.11231000991568        1.79290332029465
C           -0.54774496614305        0.05312225030241        2.76295785253974
C           -0.86737534178549       -0.17119320722868        4.07577628863630
C           -2.19368098092604       -0.44278956652920        4.46540134703309
C           -2.52027041135941       -0.62800728174957        5.84522537517580
C           -3.80023609642627       -0.75737951412002        6.25006930241827
C           -4.88149554705763       -0.63478526045976        5.32463154522460
C           -6.21623009433985       -0.62774175677634        5.76640647920358
C           -7.24174846096826       -0.39322035792077        4.89293563536104
C           -6.96901107448245       -0.13650691348791        3.55321627992923
C           -5.67978370174002       -0.15306296985383        3.09716465480338
C           -4.60468363915135       -0.45135327477054        3.95120497040318
C           -3.22443474953656       -0.50329047133772        3.49202552477108
C           -0.34847525202076       -2.00587046323717       -0.41161686333740
C            0.68098886291168       -2.71345255149306       -0.99744701946305
H            2.56466201445996       -2.59365203551119       -1.99415566879595
H            2.64823423760331       -0.13818243139131       -1.90544421713658
H            0.81175426622516        1.11669076660423       -0.85835592148605
H           -1.30208921915133        1.22136811042528        0.13110065475152
H           -2.73865895722665        0.24356269968823       -2.27205602514968
H           -4.98390435779444       -0.67318474339978       -2.72542180112860
H           -6.99936050137983       -1.81031598175538       -1.97982830596348
H           -8.15060975515485       -3.19661212296018       -0.34456037869538
H           -8.14818206574939       -4.41386623641219        1.77562354611058
H           -6.99602050550072       -5.13573355903433        3.81342012012936
H           -4.72778430888551       -4.31030423085704        4.30250293058805
H           -3.64740681351481       -2.72736388029342        2.79629869105926
H            0.45059364806491        0.32685590534067        2.46917444374633
H           -0.10861645723923       -0.09233469962669        4.83542352422527
H           -1.71886219532665       -0.66504436471372        6.56304113824636
H           -4.02809066676486       -0.89884748450797        7.29261487269586
H           -6.42137917838129       -0.79228221156769        6.81030252120880
H           -8.26072529029482       -0.38632245812465        5.24436409979240
H           -7.77790600606298        0.07565148199547        2.87314923293196
H           -5.47851359471904        0.07356560912741        2.06643124137301
H           -1.19096856174978       -2.52386247747725        0.01357752605996
H            0.64273401551085       -3.79006204024098       -1.03309159595100
