71
 energy: -15.343339521881 gnorm: 0.000984026895 xtb: 6.5.0 (97a52f5)
C          -12.00587177141131        4.92860334535966      -12.56976489701908
C          -13.03588057501573        5.01315377510326      -11.65593658820712
C          -12.90691572752899        4.42739503736197      -10.41345451206153
C          -11.74739247913209        3.75071819840913      -10.07203626860165
C          -11.60489191918533        3.11505429487336       -8.72125590880871
O          -10.39856685890351        2.41809368193660       -8.55441556171447
Si         -10.05063784289620        1.71723173221783       -7.04601999538803
N           -9.71029718416440        0.16274716839207       -8.08836310363032
C          -10.37940739829930       -0.14960469783451       -6.62150679606936
C           -8.14567745962438        0.21807816318333       -8.30999515393453
C           -7.67803333942147        0.35647440171264       -9.68932949955108
C           -6.80305042270974       -0.53620013858811      -10.21161977963593
C           -6.44251729213110       -1.70195499049045       -9.51258051629831
C           -7.09256586566532       -2.02725060768107       -8.30738042460106
C           -7.95915320894191       -1.12606864976257       -7.74509211650919
C           -9.40074768781783       -1.36838518967964       -7.29027858061930
N           -9.61487680853726       -2.48158076626094       -6.45211185273776
C           -9.55426290714768       -2.23045313875847       -5.16229250681801
N           -9.16393932780596       -1.01776083334555       -4.67527522653565
C           -9.86420041633026       -0.77968656753535       -3.54468579245265
N          -10.07864922833879        0.40032426842356       -3.02719532476939
C           -9.53177772018326        1.56373910265278       -3.51386623171432
C           -8.09367193831249        1.66114454651924       -3.68417304217005
C           -6.89770575312876        1.25275919579332       -3.12920882991976
C           -5.73506852881347        1.62596199895180       -3.77815690240574
C           -5.78401814793566        2.37908598723695       -4.94286994974253
C           -6.99415110068445        2.77646444516129       -5.48438015469949
C           -8.15950271140952        2.40909565939498       -4.83097179253043
C           -9.76412196601554        2.51309720512353       -5.07414027917185
N           -9.56717626640537        3.27277207470205       -6.39168433948709
C          -11.34441052692271        2.43352045182689       -5.08820282819248
C          -12.28790777333095        1.82543754166714       -4.12620380806671
C          -12.52394041549210        2.10579317286853       -2.78114256412247
C          -13.42628594922360        1.33178903806693       -2.08759120455465
C          -14.09465704598315        0.27620070749386       -2.70351982105856
C          -13.88093049418373       -0.02025804299309       -4.03107835845221
C          -12.99503819577130        0.76804270889148       -4.74929717007490
C          -12.43724480887738        0.67670344409036       -6.13827361070848
N          -11.67052472156153        1.88288078847421       -6.27691057707186
N          -11.76429480348344       -0.37301751420781       -6.57738995546544
C          -10.56812746649604       -1.99186290210636       -3.13862433465362
C          -11.39210869126102       -2.28913351421011       -2.06025737486405
C          -11.97808494206870       -3.53549995971794       -2.00877955134402
C          -11.76420759349416       -4.46964305868173       -3.02137263592108
C          -10.96067095989978       -4.17287579431501       -4.10165227109760
C          -10.34957983129802       -2.92536796766062       -4.14715852310785
C          -10.72112959338280        3.67402593003240      -10.99584686470273
C          -10.84647494978966        4.25846603399782      -12.23921851799668
H          -12.10678752648724        5.38601179935160      -13.54047730311951
H          -13.94195403949175        5.53722076817813      -11.91223943214762
H          -13.70798007547881        4.49161234868183       -9.69684142171310
H          -12.42383200688137        2.40601656546244       -8.54892303232349
H          -11.65637526686550        3.87818114797167       -7.93498842590257
H           -7.98200380187260        1.22495862035631      -10.24610275601858
H           -6.39620219444693       -0.36908334476993      -11.19573069284813
H           -5.75561818607256       -2.40234602008355       -9.95627510079111
H           -7.02738138538401       -3.03056666887139       -7.91655495974995
H           -6.88682832253794        0.65695835017348       -2.23383785431046
H           -4.78155694896693        1.32398286572547       -3.37711995419395
H           -4.86688188240936        2.65389386989929       -5.43720318178947
H           -7.04681560530321        3.34510258640928       -6.39564956173408
H          -11.98890132300805        2.90648588754590       -2.30184433257280
H          -13.61057717711467        1.53860253745345       -1.04620098396687
H          -14.78415223688207       -0.32163537609839       -2.13049514361935
H          -14.37543168270208       -0.84651080167471       -4.51050825034576
H          -11.56836422130328       -1.54915282769375       -1.29972648362051
H          -12.61879342099902       -3.78761920308264       -1.18002081602590
H          -12.24271720278410       -5.43330504382342       -2.96424476587781
H          -10.80936798279219       -4.87522718663755       -4.90216632034860
H           -9.82220707623323        3.14785974071626      -10.72489184429590
H          -10.04002181755270        4.19071961871636      -12.95071548340196
