52
 energy: -7.679964617136 gnorm: 0.000862870530 xtb: 6.5.0 (97a52f5)
C           -0.18562911158313        0.70454465800328        0.21612483395415
C           -0.57855352137182        1.90053352576630       -0.37372019884793
C           -1.90869927126383        2.09949349759611       -0.72990576238033
C           -2.86438452526985        1.10444845077955       -0.50146372990033
C           -4.29026514123429        1.31889665752374       -0.89131669902571
N           -5.13393148516168        0.11396535890366       -0.66648263685064
C           -5.11202719758397       -0.72936630549841       -1.73869747302509
C           -5.78617672407655       -1.95325486851803       -1.81071446289900
C           -5.80226162740653       -2.86546687115311       -2.91250021038289
C           -6.51316042592944       -4.03080661645459       -2.81730636853083
C           -7.25852307479657       -4.38099495167587       -1.63721851544654
C           -7.99856257876782       -5.54840296498968       -1.47520761492113
N           -8.66376418987249       -5.76457707961346       -0.31906568461142
C           -9.43191833206311       -7.01841527224593       -0.15499234630688
C           -8.85375631304116       -7.92127833075892        0.78445543899693
C           -8.46833759947671       -8.21335677739480        2.08421177068189
C           -8.66656956864822       -7.39810406823485        3.18374557913290
C           -3.42882040852913       -0.53121206436200       -4.66195276471973
C           -4.19142658981719        0.50896608949024       -5.17548329719717
C           -5.32357810837406        1.05886584549538       -4.59033753033912
C           -8.64154081502184       -4.89885694008854        0.73112191912888
C           -7.93547288795190       -3.70809916877439        0.67344921112949
C           -7.91990472511296       -2.79858330370056        1.79665798960750
C           -7.30872315010544       -1.57948538777594        1.98761053857268
C           -6.50945022452702       -0.83358861250808        1.15605754758187
C           -5.72047189845086        0.09625245184174        0.58241558850217
C           -6.50887413336793       -2.36266798498913       -0.75205653550221
C           -7.24190869865198       -3.47123497756992       -0.54749989179532
C           -2.45347938932996       -0.09184379871373        0.09357763621416
C           -1.12468608764087       -0.29309849978951        0.45021328098766
H            0.84602775021102        0.55053933810823        0.49053450050071
H            0.14905813024967        2.67520696348519       -0.55659938725537
H           -2.21093266956866        3.02590206636771       -1.18775496689850
H           -4.34455024238282        1.59314487195151       -1.94840084257666
H           -4.70885540577952        2.16417969111259       -0.33909964910034
H           -4.52706884746381       -0.43526815406617       -2.59057092058201
H           -5.25154393921144       -2.61717727167878       -3.80400098792122
H           -6.52326874454200       -4.71613871898114       -3.64679248463375
H           -8.03781552316637       -6.28213212988119       -2.26011095349629
H           -9.52481543745134       -7.51343637278444       -1.13070873691344
H          -10.45155791391403       -6.75676286578615        0.16011377069355
H           -7.97906903596323       -9.16658825268104        2.24931954227706
H           -8.59763974884731       -7.18397143456531        4.18354267122176
H           -2.60917958194764       -1.14505197493629       -4.76851701579967
H           -3.87538890722743        0.92990531985117       -6.12184057448622
H           -6.10644283774460        1.72689306750653       -4.60765854380315
H           -9.16804591894698       -5.17397310394351        1.62754058513126
H           -8.50008151947768       -3.15420741191549        2.63494820388958
H           -7.47662711583586       -1.11448080163887        2.95340198752793
H           -5.49647466152864        0.95063375915215        1.20505371668856
H           -3.18297191594707       -0.86213468759296        0.27082080878007
H           -0.82323806729229       -1.22191354568736        0.90758968701407
