48
 energy: -7.154178930875 gnorm: 0.000759618368 xtb: 6.5.0 (97a52f5)
C            1.40877282048230        0.34668570077961       -0.21460365015215
C            0.72308340047599        1.48769951545721        0.18618913564543
C           -0.66487054684696        1.46972315075342        0.28371464402641
C           -1.38651528478396        0.30982146156687       -0.01627953127461
C           -2.87730954667866        0.29884721881246        0.08196988517278
N           -3.46046209913931       -1.03594342157301       -0.15961941992971
C           -3.59119677919333       -1.92303818032094        0.87904165219959
C           -4.08405802460009       -3.16948639228789        0.66598766643656
C           -4.46983201106489       -3.58924969119798       -0.62789365766340
C           -4.98273982260433       -4.91765406210072       -0.87263577041432
C           -5.60572705577474       -5.25899022559440       -2.09524606497973
C           -6.06893366474426       -6.51541888831887       -2.31732471251666
N           -5.94063877147961       -7.48769358279345       -1.35626049884084
C           -6.46918263760290       -8.84614331669506       -1.58774980016591
C           -7.70780719476063       -9.11314406120855       -0.79885851505248
C           -7.94033489944277      -10.36502470141393       -0.21937969260256
C           -9.10639498126549      -10.60702133251727        0.49994843875518
C          -10.05718576429887       -9.60328430236177        0.64501798816572
C           -9.84153136009710       -8.35693527639487        0.06840779871735
C           -8.67439888624024       -8.11560192624024       -0.64839246988311
C           -5.35302926742813       -7.18931395329169       -0.15337553423763
C           -4.88067694900109       -5.94186521767979        0.09661433794636
C           -4.31882901539761       -2.64800545939496       -1.67222411547296
C           -3.82430572689641       -1.40764280860469       -1.42953741391901
C           -0.68246484414030       -0.82803548336514       -0.41919370360788
C            0.70477777176828       -0.81272182929452       -0.51809090647827
H            2.48372331943919        0.36145384850177       -0.29045243887885
H            1.26718526100166        2.38738727517730        0.42165258054359
H           -1.19478853089616        2.35415268215446        0.59176716212683
H           -3.30423107415588        0.99995687692447       -0.63866984965726
H           -3.19019435497944        0.63759381946643        1.07226701797035
H           -3.29354972275965       -1.60556881214649        1.86354850418028
H           -4.20693781612897       -3.83114325888303        1.50357697604219
H           -5.74745604295097       -4.50982015034611       -2.85250101816287
H           -6.54840687462329       -6.77037674422975       -3.24662049813298
H           -5.68613930886225       -9.56214987919010       -1.32786384310073
H           -6.67188203167228       -8.97537321886091       -2.65318836593722
H           -7.20787765397587      -11.14472817996470       -0.33477601139814
H           -9.27276578921006      -11.57396381347597        0.94521354867592
H          -10.96054890102282       -9.79170034288025        1.20157675816870
H          -10.57726087450166       -7.57758664876948        0.17786460010205
H           -8.49975359774070       -7.14997831200447       -1.08862253424843
H           -5.27593429045663       -7.97028365344551        0.58346427031356
H           -4.39418268607629       -5.74791249595380        1.03466663540512
H           -4.56351127308259       -2.92350700754527       -2.68159963173936
H           -3.69393259133264       -0.69732439114925       -2.22779026419006
H           -1.23068900392622       -1.72286731620100       -0.65133642819286
H            1.23293497866847       -1.69861321189738       -0.82947325975630
