53
 energy: -11.406983597932 gnorm: 0.000707418366 xtb: 6.5.0 (97a52f5)
C            0.53028587786190       -1.25799900061328        0.58378327720597
C            0.29070073565829        0.08670027591300        0.39292122582708
C           -0.95832277007317        0.61087331690562        0.65559820952328
C           -1.98614530100505       -0.20155837445134        1.11049201439248
C           -3.33678154895447        0.37609428097905        1.40044106237596
N           -4.44968430573486       -0.49765956966454        0.99759505969382
C           -5.03809244579316       -0.31499341098786       -0.24600134974059
S           -5.03546896689654        0.78810942291064       -1.60549022568071
C           -6.19665277593787       -0.19896685884087       -2.47284197750027
C           -6.55545947269626       -1.29374590820846       -1.77753352366259
C           -5.89846338085579       -1.36487906656498       -0.49655650863871
C           -5.82587430723128       -2.25180586739783        0.61855135676551
C           -6.43096076863767       -3.56103628405031        0.78099832554137
N           -7.24798020566416       -4.18485685162029       -0.02954911977478
S           -7.58637850516050       -5.65801388639217        0.64169432837390
N           -6.66004004713343       -5.50764249233491        2.00352972847313
C           -6.08391169219167       -4.33299482898811        1.95999189609977
C           -5.18452351483207       -3.73283334764804        2.92741893972426
C           -4.72413298917780       -4.25327322807896        4.17302337711424
C           -4.86343350084913       -5.46144523096118        4.95009764747233
C           -4.19377063104130       -5.39964520208538        6.11598616964569
S           -3.38006013471429       -3.86449134671784        6.31701698862351
C           -3.94709345937577       -3.27820519144204        4.76863273518341
N           -3.89750980780780       -2.16932146232335        3.93245429842275
C           -3.29005475479128       -0.88632980709530        4.32352953099910
C           -2.77678824043461       -0.84236043974258        5.72788373262748
C           -1.51092186869735       -1.31626622441588        6.02601025413991
C           -1.04525851627505       -1.30911423900421        7.32293428334132
C           -1.84236722400217       -0.82778224586335        8.33927876362704
C           -3.10711294190015       -0.35778941559618        8.05613560514021
C           -3.57236789250537       -0.36810538330640        6.75789977995678
C           -4.64768807628885       -2.44794602385949        2.77136424823675
C           -4.93934579368609       -1.70000330092694        1.55496404828956
C           -1.72633248414789       -1.54796422493350        1.30539142168391
C           -0.48049254808635       -2.07617643465217        1.04194385075901
H            1.50581537555485       -1.66750496434824        0.37862516948291
H            1.08022961670312        0.72934999502154        0.03911950690871
H           -1.14372357800266        1.66109992241856        0.50843451310630
H           -3.45150159373287        1.31355228696337        0.84819986898188
H           -3.43939382413535        0.65121435262045        2.44793702159212
H           -6.56495971482130        0.05783962241697       -3.44791198256681
H           -7.25128811465562       -2.04101450177016       -2.12186358765967
H           -5.43805184690118       -6.30935299104511        4.61533969229836
H           -4.15328327980651       -6.18491769436678        6.84668881253025
H           -4.04402570951514       -0.10710172759223        4.19074886717854
H           -2.46364561773717       -0.67921954292230        3.64183799175518
H           -0.89535801163502       -1.70170373960941        5.23116556828713
H           -0.05825826016568       -1.68207716464104        7.54262282475335
H           -1.47849264441004       -0.82159887334362        9.35377167941586
H           -3.73406812849193        0.01410066348320        8.85004128984089
H           -4.56433431079495       -0.01377310216390        6.53548541400498
H           -2.50781313583183       -2.17960267315576        1.68493071710184
H           -0.29650296254303       -3.12641201591696        1.19884717872230
