46
 energy: -9.917652005984 gnorm: 0.000341257495 xtb: 6.5.0 (97a52f5)
C            1.40886765971050       -0.55309738784854        0.63384482781811
C            0.88117199580504        0.57221635961527        1.23709647586349
C           -0.42223368924463        0.94124871289361        0.99000223962113
C           -1.22106973967770        0.19072107482875        0.13154934662946
N           -2.59068926436712        0.55418556231743       -0.12053871957321
C           -2.95029029929038        1.94581762098030       -0.18499943199172
C           -4.19653665730084        2.36883991991498        0.26816157771688
C           -4.55522836872166        3.69643710162189        0.20140936877878
C           -3.67663916976334        4.62493610113189       -0.32240640852410
C           -2.43869186788239        4.21922885268137       -0.78232604031243
C           -2.07814088357586        2.89188775293252       -0.71647602405537
C           -3.58726578748397       -0.46059299400705       -0.28866956083555
C           -4.38263715630751       -0.50206491414010       -1.46635620761221
C           -4.20088656364101        0.42557057260687       -2.51472208700463
C           -4.95519203417777        0.36899813271076       -3.64807409147976
C           -5.93248835624017       -0.62428039112857       -3.80112640834763
C           -6.13523795826905       -1.54612715325643       -2.82097411281530
C           -5.36669029912559       -1.52017108539436       -1.62826025759945
C           -5.54782473771085       -2.47136654605578       -0.62404495192866
C           -4.78463438361394       -2.44998032424967        0.54344822308898
C           -4.98048491463218       -3.40492505109674        1.57485436738296
C           -4.24889779858727       -3.35291921098264        2.72103970819383
C           -3.28719184564950       -2.34947243547693        2.90305144845057
C           -3.06862260876799       -1.42010132498880        1.93094883454786
C           -3.79454180016997       -1.44041554256172        0.72046528816899
C           -0.67726637828351       -0.94391806403517       -0.46379674088773
C            0.62653536999250       -1.31063735467966       -0.21616940513311
H            2.42940724162036       -0.84069848846099        0.82765920239905
H            1.49010720019215        1.16122643918965        1.90346818725122
H           -0.84230718334174        1.80913810992503        1.46759428669785
H           -4.87533847017946        1.63947091644557        0.67432367313926
H           -5.52256222243081        4.01129584148331        0.55761752363605
H           -3.95733988339431        5.66435193944817       -0.37331807616359
H           -1.75419325064023        4.94285898097056       -1.19418994409200
H           -1.12002454206800        2.56905414565435       -1.08460163875947
H           -3.44925717380126        1.18580698127448       -2.40576946537827
H           -4.80151328150594        1.09027236393504       -4.43407068179673
H           -6.52223839097762       -0.65685149103060       -4.70268864953231
H           -6.88253303467816       -2.31158080758822       -2.94091918830096
H           -6.29238409500250       -3.23604311305398       -0.75171994708450
H           -5.72410349151305       -4.17129836127166        1.43906863672817
H           -4.41051203967158       -4.08215736169939        3.49807794479124
H           -2.72037276363100       -2.31438814130702        3.81907422116476
H           -2.33475491468959       -0.64931282186016        2.07901112596921
H           -1.29388162044106       -1.52935411968345       -1.12320380518632
H            1.03692945314299       -2.18953899670228       -0.68617466361251
