77
 energy: -16.629646904393 gnorm: 0.000263627134 xtb: 6.5.0 (97a52f5)
C            0.67245255206602        0.18495535659026        1.92804751481632
C           -0.02061255975796        1.37979464810514        1.91201767601055
C           -1.17664023531101        1.49771768698614        1.17370816103584
C           -1.66222135055148        0.41985745740761        0.43731634070708
N           -2.86326368687901        0.54233686865290       -0.34117231037942
C           -3.13133777880568        1.76525134511279       -1.04497516737350
C           -4.42738974809446        2.26879726432828       -1.12877734190445
C           -4.68137648411756        3.44935171829762       -1.78989100863671
C           -3.64683341559522        4.14885225537443       -2.38012795991230
C           -2.35593551069905        3.66272428837450       -2.30636429712211
C           -2.09935272487599        2.48277377532534       -1.64503720050506
C           -3.79226014281399       -0.54341570864105       -0.40053591207260
C           -4.51901680965289       -0.80414085398835       -1.56250510365281
C           -5.40743139884371       -1.84798952499570       -1.62082070109432
C           -5.62269858625488       -2.67990490954603       -0.51399511282076
C           -6.55549706041150       -3.80878764376533       -0.57436678552133
C           -6.87051747100222       -4.41258340506858       -1.77559972223779
C           -7.75084672588082       -5.49341994534726       -1.87945236357084
C           -8.39124936212714       -6.05244336655840       -0.79120565134648
C           -9.32172858062822       -7.17326404598027       -0.95284510418624
C           -9.23781536967333       -8.04166838448011       -2.04929349946652
C          -10.13172063648817       -9.06973499643386       -2.21083758127995
C          -11.16161507142225       -9.27709556962803       -1.29283956669509
N          -12.10106897847945      -10.34126008876273       -1.47044156625064
C          -11.67283425708133      -11.59384060570749       -2.02789414489706
C          -12.49433012183558      -12.30637247376364       -2.89813841301142
C          -12.08265759013717      -13.50949027818756       -3.42590039592506
C          -10.84431912021786      -14.02416104511246       -3.09442396370134
C          -10.01797894991784      -13.32985085188599       -2.23239884758706
C          -10.42706839002425      -12.12629116990198       -1.70395036684993
C          -13.47555318704958      -10.15916399539637       -1.09613143558059
C          -14.20837023968722      -11.20427470930674       -0.53881397603527
C          -15.52835904768649      -11.02866737309199       -0.18901714289926
C          -16.14173251385484       -9.80731215373341       -0.38967304427931
C          -15.42879836738216       -8.76085334718994       -0.94151751989070
C          -14.10864999584841       -8.93383523733241       -1.29141963716507
C          -11.24825703207551       -8.42088960643909       -0.19526176830717
C          -10.34458605966006       -7.40395289817693       -0.02682121694136
C           -8.12080950480325       -5.47613125854218        0.51033340413290
N           -8.63503466762413       -5.88057150739330        1.63641222595699
Se          -7.99187779916087       -4.85954077645913        2.97172031634047
N           -6.99650323527569       -3.88745930014876        1.83007369935956
C           -7.17740500776518       -4.33911762504638        0.62204362721448
C           -4.90109892312229       -2.39939881507917        0.65103682787694
C           -4.00159969535704       -1.36644197613712        0.70583642394913
C           -0.95242943633139       -0.77834726073161        0.46462685458803
C            0.20394358790718       -0.89322915350565        1.20271935375448
H            1.57806506670086        0.09431440695645        2.50522505017705
H            0.34393455536050        2.22102600405019        2.47856463655263
H           -1.72471561391092        2.42351321010757        1.16283304180624
H           -5.22753524931192        1.72587959401111       -0.65696594780443
H           -5.68845487794215        3.82932065306676       -1.84481435571019
H           -3.84650839872004        5.07338626353550       -2.89671871860794
H           -1.54837774449857        4.20822839950048       -2.76658267200077
H           -1.09669527073004        2.09669318054381       -1.58845470924903
H           -4.36187664880888       -0.17666808493554       -2.42228087854115
H           -5.96760325897552       -2.01451200348167       -2.52378720348973
H           -6.39837416167396       -4.05255443259343       -2.67243096572068
H           -7.95981421803411       -5.88729430967640       -2.85825507755565
H           -8.44427895959682       -7.91487719397767       -2.76421476985679
H          -10.05763731721184       -9.72502991976565       -3.06096467031285
H          -13.45474594393804      -11.89722728541385       -3.15838892597849
H          -12.72750914712202      -14.05043193504980       -4.09900927904747
H          -10.52341822177254      -14.96655490790705       -3.50723475174193
H           -9.05248270501251      -13.73156259561905       -1.97160545977579
H           -9.79176311215293      -11.58552925146704       -1.02449832702951
H          -13.72354316919646      -12.15123781082513       -0.37833874202842
H          -16.08401854693766      -11.84520596016457        0.24227974785507
H          -17.17531739900768       -9.67111642734615       -0.11652074810535
H          -15.90699366569226       -7.80808470321324       -1.10004927058486
H          -13.55131813237734       -8.12518523894143       -1.73080559305715
H          -12.02751971046199       -8.58254239374939        0.52875132648693
H          -10.41614655197427       -6.76414241356914        0.83269721836208
H           -5.06320961155117       -3.01179613425189        1.51824742918843
H           -3.45869175674778       -1.16505501268786        1.61257738911427
H           -1.31710501861824       -1.61144192121545       -0.11041843354723
H            0.74549148024604       -1.82498257903775        1.21273706347136
