106
 energy: -23.088557945810 gnorm: 0.000631323154 xtb: 6.5.0 (97a52f5)
C            1.03112869039325        1.70876441240278       -1.23061687835370
C            0.36450319352180        2.56702540840141       -0.37777286584451
C           -0.95346180862737        2.33340024395486       -0.05484412226055
C           -1.63120646308937        1.23543022638561       -0.57965891137092
N           -3.00916915049364        0.99883869440597       -0.25162299824711
C           -3.90311950405123        2.11182494526370       -0.08909221440515
C           -4.87875911774446        2.10283096970697        0.90519410013732
C           -5.73516239774053        3.16985278260483        1.05971758591979
C           -5.63351019688553        4.26609332322408        0.22518960112261
C           -4.67043368195934        4.29095855146112       -0.76494025716919
C           -3.81274844840053        3.22518044149147       -0.92131171709654
C           -3.49382988319653       -0.33900262640810       -0.08140207180305
C           -4.79266283686103       -0.67872828245878       -0.45541341488757
C           -5.26322226949092       -1.95769278934346       -0.28700868721255
C           -4.45526556151834       -2.95551749201773        0.26430908411069
C           -4.96958944828011       -4.32521741462833        0.45602615646164
C           -4.13592974989841       -5.44051255839325        0.36651274578774
C           -4.63450394991165       -6.70599865186984        0.54749127070420
C           -5.98652028686234       -6.92152775939670        0.82603384307100
C           -6.83580991552343       -5.80943005978979        0.91599276422033
C           -6.31844584685293       -4.54498056023287        0.73329784358366
C           -8.32086380480346       -5.97352828705881        1.20262710686752
C           -8.71263743515266       -7.42627954236077        1.42706528535465
C          -10.01834208820444       -7.73545855909191        1.74271112880860
C          -10.43735581644577       -9.04575375741192        1.97114428198077
C          -11.84025323939670       -9.33550898431628        2.32719970028084
C          -12.88873145984795       -8.59626888580807        1.77379485369491
C          -14.19255399208009       -8.84792836554109        2.12434793230529
C          -14.50467888127971       -9.84405792312161        3.04807896631272
N          -15.86382207064837      -10.09031083765744        3.43376092434236
C          -16.91431831906884       -9.99377790543482        2.45924534492447
C          -18.16055035136510       -9.47334554798520        2.80022579063066
C          -19.16547268541446       -9.38402350882418        1.86301997903630
C          -18.94538791781329       -9.81174439721912        0.56798050231519
C          -17.71471518120773      -10.32954917704760        0.21355809110729
C          -16.70843381229288      -10.41969107084543        1.14904799256137
C          -16.17253183593020      -10.42113724387778        4.79665236322591
C          -17.18942498203001      -11.32327316376082        5.10034052564586
C          -17.48120341152983      -11.63984578537573        6.40837710056042
C          -16.76330730707973      -11.06263253159853        7.43791284686498
C          -15.75201670768094      -10.16557538199433        7.15376514698059
C          -15.45922739966273       -9.84708628114905        5.84661005865070
C          -13.46162054178535      -10.58796435300055        3.59716221243641
C          -12.15788446443250      -10.34137914322472        3.24292512967200
C           -9.48662167153799      -10.06104823747148        1.86471864546848
C           -8.18457349244399       -9.77094487646348        1.54432657625790
C           -7.76682837079247       -8.45655568401818        1.32052528219668
O           -6.42669371873301       -8.23339154788368        1.00286631991776
C           -8.72963248299753       -5.11445753492129        2.40630815777860
C           -8.31800636806977       -5.18016613957179        3.72107986134594
C           -8.83589582286648       -4.27539686225983        4.62972635002439
C           -9.75326217442780       -3.31671604787185        4.22879388753377
C          -10.16949778015027       -3.24501140824541        2.91433723876945
C           -9.65335338309150       -4.15043361359860        1.99841083357131
C           -9.90915958102953       -4.30156896418322        0.55859921183753
C          -10.72895773671472       -3.57350093207570       -0.29168314121734
C          -10.77968182920705       -3.92108169341480       -1.62693992490211
C          -10.02525399552068       -4.97757548860991       -2.11276952672468
C           -9.20501004714297       -5.70526201412414       -1.27014313098839
C           -9.14965601434062       -5.36386039069507        0.06505953883951
C           -3.15345112127442       -2.61150666174862        0.63686833877047
C           -2.68387513649156       -1.33176363325358        0.46729858267365
C           -0.94472713964537        0.37991976923438       -1.43828134501322
C            0.37344543078060        0.61510403739501       -1.75958809613084
H            2.06251658763222        1.89278966763841       -1.48360174176761
H            0.87665216981466        3.42052152216771        0.03567899338625
H           -1.47578856011452        2.99531493067960        0.61353442007794
H           -4.94781425809268        1.25006647301593        1.55774486189380
H           -6.48528649234856        3.15050074613362        1.83342811991116
H           -6.30449093726661        5.10070539933036        0.34698232660295
H           -4.59076936223761        5.14572767579274       -1.41662448830742
H           -3.06576560512698        3.23529019994629       -1.69568139644393
H           -5.42131968475575        0.07830127377748       -0.89057080762936
H           -6.26317192799502       -2.20391235812026       -0.59933854142120
H           -3.09416519525348       -5.30289188025100        0.13478089993547
H           -3.98828075712376       -7.56287122636440        0.47592429420614
H           -6.97942351555167       -3.70275908454059        0.82590044782825
H          -10.72934426439819       -6.93493940340740        1.83632540735328
H          -12.66556342552685       -7.82764747275719        1.05420135950542
H          -14.99183590297494       -8.26737495214200        1.69804526980552
H          -18.32381594686913       -9.13283680582130        3.80770962408545
H          -20.12511845427296       -8.97893843878441        2.13984810172671
H          -19.73279990020204       -9.74154874677039       -0.16459573360621
H          -17.54252592846520      -10.66499603154075       -0.79613045162857
H          -15.75060122300018      -10.83003574702584        0.88091746696334
H          -17.73946668809747      -11.77729617511691        4.29479914537801
H          -18.27028038049636      -12.33991482628220        6.62951721351810
H          -16.99132853260292      -11.31215462267980        8.46133074605633
H          -15.19191188843082       -9.71380146303036        7.95619063064561
H          -14.67815078977293       -9.14241911811595        5.62052623350235
H          -13.69541822419959      -11.36564666678618        4.30304978996176
H          -11.36325726901933      -10.91349680622241        3.68940174024879
H           -9.78778718216490      -11.08218545291933        2.02221136721404
H           -7.45482878557715      -10.55657740825811        1.45957985430031
H           -7.60425276263725       -5.92771135521062        4.02028807638256
H           -8.52212856304881       -4.31665375875462        5.65994790255209
H          -10.14575942360589       -2.61912364638135        4.95052022849051
H          -10.88016503988115       -2.50349174090879        2.59425648396448
H          -11.30815237780775       -2.75270337008171        0.09321630312305
H          -11.41163685047922       -3.36359028227384       -2.29880675884412
H          -10.07610612413902       -5.23399182741988       -3.15830727669695
H           -8.61091789482405       -6.52407560041786       -1.63668907978870
H           -2.52055260489801       -3.35874085515219        1.08288806499388
H           -1.68439236712241       -1.07536407720154        0.77217511516444
H           -1.46500343804467       -0.46407230894625       -1.85627462877411
H            0.89264454516903       -0.05431762604381       -2.42591736467810
