106
 energy: -17.188447667177 gnorm: 0.006929124958 xtb: 6.5.0 (97a52f5)
C            0.08767382811383       -0.94240909168815        0.62181445927225
C           -0.42543642367411        0.20033496586921        1.20424394614137
C           -1.72802952544013        0.57427008624768        0.96072918655031
C           -2.54329177367505       -0.19113313190768        0.13056099449154
N           -3.90496009418222        0.19432724693751       -0.11444717199220
C           -4.23175461671583        1.58360218464931       -0.27448398327750
C           -5.39761531558696        2.11055190285153        0.27566405995155
C           -5.70768176105652        3.44302049764538        0.12389997354166
C           -4.85874255066009        4.27470317808904       -0.58051602062813
C           -3.69640389711168        3.76846387204656       -1.12912163747066
C           -3.38384587902946        2.43607052190441       -0.97734963922680
C           -4.93179083532470       -0.80108328618376       -0.15709917432901
C           -6.07095092732392       -0.63124718091892       -0.94196674204235
C           -7.05710995548569       -1.58673872963301       -0.95765411708612
C           -6.94347177768573       -2.75304059752202       -0.19711223156627
C           -8.01590097212809       -3.77076552970459       -0.22089664248127
C           -9.33366133131317       -3.42735944244665        0.09193610501060
C          -10.32493533371892       -4.37419225170728        0.04728024264364
C          -10.02484732584596       -5.64357321665844       -0.31618356564719
C           -8.75868967803577       -6.03197958801256       -0.64823710209803
C           -7.74894550434038       -5.09170147188668       -0.58947480003862
C           -8.49996036756460       -7.37913555908138       -1.07680881327417
C           -7.42874667218512       -8.02288224771334       -0.46972519403558
C           -7.48597150940356       -8.92342667213863        0.51936636453409
C           -6.38737494566572       -9.49314866824023        1.07330141159263
C           -5.06056337183749       -9.23282733394349        0.79040649161554
C           -4.38818698164752       -8.11076943347338        1.01566726582348
C           -4.84195887407936       -7.00934413779715        1.59684300808086
O           -4.23998045308062       -5.88278308803726        1.92154499444006
C           -4.72809088609552       -4.88015159658687        2.53785184967273
C           -4.09930322144346       -3.85749287492750        3.13854562615370
C           -4.63074945543639       -2.85914611006063        3.82225419329693
C           -5.87314390220888       -2.53131326992130        4.13278943588500
C           -7.07876128375033       -3.04549734302734        3.92460785320533
C           -7.48164127989382       -4.13487541891725        3.29608062345292
C           -8.72533686316048       -4.53348211093544        3.16455345609153
C          -12.16080688675776       -4.02384022008142        3.20623527240829
C          -12.34598497911722       -2.77861519451677        3.47888482332277
C          -11.76303793116821       -2.06356314253170        4.42540948048002
C          -10.83697016460057       -2.45537200421422        5.28546859857854
C          -10.27732021692090       -1.74641129304657        6.25520409765801
C          -10.52197933943524       -0.53298023317735        6.59016607401773
N          -13.19542934804462       -8.77408674733770        8.39454737381556
C          -12.71317788866875       -9.85734346986751        8.65965449164839
C          -10.69590502160837       -6.96542941151747       13.69035752186388
C          -10.69774781105738       -8.00086055651437       12.94984259639724
C           -9.64882352705631       -8.51042307193890       12.33286762927145
C           -8.43953993321030       -8.05345834136090       12.37986264496468
C           -6.49532306209083       -6.56612474107017        8.50047437378010
C          -10.94736159715953       -4.53922198230190        9.55681440351255
C          -10.69529521291075       -3.41821273953197       10.12124942110766
C          -11.51308274649400       -2.59462293054266       10.75651853932429
C          -12.82547433545702       -2.58526563944883       10.91077112587591
C          -13.81435310346361       -3.22702151130168       10.30551308775538
C          -13.84383651999370       -3.93055696279261        9.11797574897360
C          -13.34574870658077       -3.53951563915020        7.92506841662063
C          -13.46111975798525       -4.27909305735557        6.81793420925135
C           -7.21235655147719        0.55832210451325        3.14665300735463
C           -7.75277399588086       -0.09999700894914        2.11173009003244
C           -8.91486051606468        0.20097415655263        1.59973653823480
C           -5.79834153293452       -2.92529794250948        0.57852038920526
C           -4.81719737433553       -1.96607519641776        0.59581953967875
C           -2.01002947939400       -1.33887077620332       -0.45107735977687
C           -0.70706977781037       -1.71069126924535       -0.20663176676241
H            1.10693592390038       -1.23539027653886        0.81363410249149
H            0.19366785859948        0.79825920463230        1.85292823055643
H           -2.13652568011941        1.45817935594758        1.41841460807121
H           -6.04765407943244        1.46165649231271        0.83539321419411
H           -6.61231190101870        3.83929705937798        0.55563002708165
H           -5.10268313341230        5.31753267103546       -0.70214865632718
H           -3.03218135538567        4.41758958421948       -1.67608203092949
H           -2.48334248854037        2.03383623859043       -1.40764053964793
H           -6.16481738048669        0.25877746026462       -1.53894450874833
H           -7.93662230882558       -1.44714523887822       -1.56216758738177
H           -9.55445064372309       -2.41421469225240        0.38183562754812
H          -11.33996756557694       -4.12294358872419        0.30307531885549
H           -6.74286282355994       -5.37629287580277       -0.84085726301799
H           -8.45353568718188       -9.21323324016259        0.89306070730076
H          -13.50491864765280       -8.06584792581393        1.84548729174133
H          -11.31734271523263      -11.04003816999682        3.79159938583299
H           -6.99683437156620      -12.77336290244447        4.22918510253335
H           -1.46251188487716      -10.78159425783884        3.35547619002486
H            0.11501913396209       -5.45619196935341        2.36652806199416
H           -6.81789640321586        2.51473976023792        7.21114377617477
H           -9.53700387600731       -3.98629677487998        3.54292118990675
H           -7.24582541175737       -6.31079439770915        1.72388328612397
H           -5.52968325837461       -5.55751758593537        4.06172055330488
H           -8.20290035627587       -8.67619370055034        5.01802355361205
H          -15.06453429379041       -7.27438087983808       12.22934469887154
H          -12.04834131426047      -12.32183843158916       12.42640237033299
H           -7.49274932587794       -7.73767199443511       13.84156201638022
H           -7.67328607539057       -7.50565836761098       10.87145952685362
H           -6.47035484857684       -2.06841213373402        8.45035757253996
H           -8.08573043012163       -0.05815450351054       12.36133507912678
H          -16.32233392104146       -3.76150005105357       14.21063976431885
H          -18.11551402408525       -5.13540456353050       10.48070944420751
H          -17.31329026703242       -6.66554070996948        6.30656669918926
H          -10.48518287220774       -5.42060918662932        5.72849304128129
H          -12.82617810209108       -2.59722027723768        7.87407118736676
H          -13.08481526103989       -3.99316160587002        5.88016781727793
H           -6.27136854903950        0.33667523594989        3.55939484815905
H           -7.19740943200705       -0.90687081955674        1.66216009132372
H           -5.68986288213243       -3.79950723024373        1.20012892617980
H           -3.95440297528579       -2.09230862781484        1.22543512799466
H           -2.63118550521490       -1.92949571152354       -1.10164685495521
H           -0.30684177691855       -2.60042047717662       -0.66450615342090
