55
 energy: -11.966028253071 gnorm: 0.000358665267 xtb: 6.5.0 (97a52f5)
C            1.34297793883507       -0.51455374548790        0.56016216385783
C            0.76734188814077        0.64099894742905        1.05181921845917
C           -0.54219468388576        0.94214558664031        0.75177749961773
C           -1.30221452430322        0.09129552426341       -0.04740849271890
N           -2.66516295531550        0.40570832843789       -0.37180484632077
C           -3.05497854510783        1.76973362035450       -0.59360765636219
C           -4.30061121426399        2.22881426968345       -0.17113523633721
C           -4.67374346287261        3.53824985349012       -0.37423658425763
C           -3.81094307884279        4.41446689562793       -1.00346274758390
C           -2.57262479154410        3.97480595618609       -1.42971453275788
C           -2.19718913405393        2.66569097929347       -1.22744578285930
C           -3.64104894988993       -0.63869001261454       -0.45685159870814
C           -4.64652064452808       -0.59915838239787       -1.42354044583939
C           -5.58994527069881       -1.59258400605818       -1.49827849926342
C           -5.57636880472759       -2.66177047313284       -0.59839137548578
C           -6.61773098242603       -3.71766537400341       -0.65742504355502
C           -6.68972080064075       -4.56271319980189       -1.74186277801336
C           -7.65804464883441       -5.56555232118208       -1.81492088477361
C           -8.56799728419060       -5.72831097692114       -0.81328343557957
C           -8.57122320391655       -4.88858352352345        0.32471348915921
N           -9.51092209019340       -5.07654212006493        1.26990635918296
C           -9.50915179334465       -4.24209491651752        2.32567396717365
C          -10.48892153114748       -4.39940734179322        3.33667211561979
C          -10.53341930199243       -3.57069113285296        4.41542510842176
C           -9.60117886451354       -2.53141538282350        4.55607303855992
C           -8.63999605414770       -2.34223631541122        3.61396376224634
C           -8.56477864213558       -3.18798735446896        2.47774517223284
C           -7.59773583352321       -3.02001461697201        1.49745355399195
C           -7.57945678843731       -3.86642363570012        0.40356177294873
C           -4.56673810512723       -2.70119008871009        0.36759776612916
C           -3.61636190739528       -1.71376915456985        0.43224933787223
C           -0.70763783928956       -1.07113453659565       -0.53308860336592
C            0.60225229319394       -1.36967291028382       -0.23250050792210
H            2.36857350863907       -0.74867036819685        0.79454870973503
H            1.34443665941938        1.30772151279121        1.67154833525851
H           -0.99776715155383        1.83688251247055        1.13844313328642
H           -4.96440422411062        1.54467486557853        0.32799004930392
H           -5.63946491886590        3.88055505631239       -0.03977536887764
H           -4.10342770941671        5.43971372828072       -1.16119849425117
H           -1.89963015351567        4.65763293185089       -1.92210781415082
H           -1.23719003487011        2.31617661833589       -1.56485222569571
H           -4.66527587236124        0.22225745486190       -2.11814322619873
H           -6.36405036205172       -1.55207070529305       -2.24505349139464
H           -5.97521869573667       -4.44698475443355       -2.53854605762153
H           -7.68331130607494       -6.21661469634028       -2.67341621975201
H           -9.31359413529645       -6.50127747547705       -0.87584585204003
H          -11.20608431576466       -5.19410573441647        3.22961837037880
H          -11.29083297349540       -3.70941871268362        5.16949692567281
H           -9.65150115503914       -1.88189540777750        5.41457035683234
H           -7.92406312877613       -1.54515494847499        3.71738210303844
H           -6.87599376926185       -2.22910924072170        1.58420562597849
H           -4.54451639875526       -3.52297687758229        1.06250610671828
H           -2.84758200528608       -1.74690485769388        1.18419167140568
H           -1.28658138010033       -1.72830245905307       -1.15814878082105
H            1.05098913338893       -2.27069688188638       -0.61778913055523
