72
 energy: -15.435450700861 gnorm: 0.000494132372 xtb: 6.5.0 (97a52f5)
C            0.13339925742444        0.78594369946874        2.69964415559796
C           -0.53303209494256        1.89978280116384        2.22701167773208
C           -1.49778597844168        1.76563351647370        1.25380426818002
C           -1.81431344947245        0.51291566643131        0.73368718662537
N           -2.80575340538758        0.37465087591651       -0.29592791506104
C           -2.92322447443410        1.38351893140151       -1.31194670243925
C           -4.17319736794676        1.76435275541969       -1.79437622118337
C           -4.28661803157066        2.73439411632036       -2.76487765184794
C           -3.15465319869479        3.34241961398732       -3.27202017820694
C           -1.90761024664714        2.97568396769550       -2.80429811131821
C           -1.79170451761998        2.00595030568652       -1.83365199815019
C           -3.67364441717106       -0.76525413135042       -0.31739270789276
C           -4.07451313743860       -1.33101631213635       -1.52682853027519
C           -4.90959051297110       -2.41983546858561       -1.54960548710841
C           -5.38827402641384       -2.98894401472730       -0.36732105718683
C           -6.27984981513529       -4.13742341663596       -0.42080880739069
C           -6.95993645935352       -4.71042056689316        0.62375385313221
N           -7.75384482721480       -5.77418040058253        0.33443076452172
C           -7.71869452120904       -6.07192731116639       -0.94228055418689
C           -8.47139209776200       -7.15184643472572       -1.54442760507363
C           -8.30409024439113       -7.48556925588888       -2.89098823883484
C           -9.02323289289632       -8.50714970751049       -3.45825064658848
C           -9.94602554376482       -9.23391021541880       -2.70578738845431
N          -10.70300135489105      -10.29459176827078       -3.30316643941448
C          -10.08976027859017      -11.14751720353018       -4.28242000394595
C          -10.80923484585969      -11.60249706765000       -5.38486674719379
C          -10.21617458983917      -12.41678930595254       -6.32362259950674
C           -8.89460855850022      -12.79245555175324       -6.17923455584447
C           -8.16742024307038      -12.34988810356134       -5.09131744917932
C           -8.75833053945279      -11.53534722433936       -4.15162504530876
C          -12.07848991139693      -10.49079353468040       -2.94114235190291
C          -12.61972088957342      -11.77169226640799       -2.86134011412003
C          -13.94150154337922      -11.95638136037724       -2.52255561263223
C          -14.74754049976569      -10.86632634452530       -2.25708568171139
C          -14.22575469465375       -9.58938773154400       -2.33117680290767
C          -12.90430749554868       -9.40241903815634       -2.66970886262497
C          -10.11559257558020       -8.90237393684153       -1.36115089855501
C           -9.39031004461596       -7.88575266748699       -0.79102183979307
S           -6.66026441311604       -5.01482274815404       -1.86925469819272
C           -4.98365319241210       -2.41969154547367        0.84403902319190
C           -4.14258001304568       -1.33397038469981        0.86648608813942
C           -1.13480240336898       -0.60035079404694        1.22251642397570
C           -0.17019162951612       -0.46390298765428        2.19566839627274
H            0.89008460578239        0.89191197361555        3.45975521709152
H           -0.29719380053536        2.87542134681896        2.61957835235142
H           -2.02286095701868        2.62935861627865        0.88518101483914
H           -5.05178939547785        1.29386594398493       -1.38895150004720
H           -5.26011004368151        3.02050171607257       -3.12829869428097
H           -3.24439079903047        4.10201012631642       -4.03129726294324
H           -1.02393629063194        3.44898907629393       -3.20013315418755
H           -0.82257438912755        1.71133029502035       -1.47086077055408
H           -3.70963603317760       -0.90585874063310       -2.44529252073221
H           -5.21036015387323       -2.84972942719417       -2.48879238200562
H           -6.89867059193331       -4.33955264801674        1.63671656229599
H           -7.59823759263731       -6.92752683694124       -3.48039496195623
H           -8.89307116248616       -8.75245028731710       -4.49766189884305
H          -11.83554975259681      -11.29962819686022       -5.49716053987064
H          -10.78354055313176      -12.76016365793408       -7.17317707743132
H           -8.43113832579983      -13.42969002689188       -6.91455156682754
H           -7.13669840246811      -12.64339142055980       -4.97710617602261
H           -8.19945737039341      -11.19427131021212       -3.29777175787628
H          -11.98580723047848      -12.61760058483803       -3.06195141260872
H          -14.34759542663213      -12.95298528827032       -2.46405723003122
H          -15.78213591747764      -11.01179267681211       -1.99246167252319
H          -14.85444381501150       -8.73825264451798       -2.12648032154269
H          -12.49552802548941       -8.40961764758451       -2.73972075937436
H          -10.81902916860812       -9.46516277560000       -0.77294101561915
H           -9.52354441810111       -7.63779806505949        0.24723737043642
H           -5.33182601118113       -2.84337365532572        1.76926285735387
H           -3.84255368667110       -0.89909232499704        1.80374767753647
H           -1.36592874978513       -1.56999844896704        0.81761611376549
H            0.35089517719938       -1.33319987914161        2.56226517612069
