49
 energy: -10.520946786737 gnorm: 0.000647886970 xtb: 6.5.0 (97a52f5)
C            1.08989140638331        0.16397140322722        1.25631119806619
C            0.31808347331355        1.27702032771789        1.52647958742932
C           -0.95830713052020        1.37181044307069        1.01945789931450
C           -1.48764647327663        0.35272164893880        0.23166168745992
N           -2.81830727599967        0.45109804948200       -0.29995950243990
C           -3.30425924513809        1.71958643302036       -0.76492400518483
C           -4.63127806044082        2.09219678726821       -0.56516887597141
C           -5.09256069011823        3.31238579767375       -1.00499198548535
C           -4.23773802993411        4.18426662887009       -1.65053621104485
C           -2.91850027766256        3.83039845653239       -1.85520010125693
C           -2.45526391042929        2.61029782659168       -1.41725989790134
C           -3.65329738261383       -0.71013314705039       -0.36118851757051
C           -4.56715135977667       -0.88213362128322       -1.39992171156877
C           -5.36046055679544       -2.00070087651568       -1.45891099103477
C           -5.27900726517517       -2.99722720974977       -0.48407538038782
C           -6.12415723718249       -4.17808547740648       -0.57252287673180
C           -6.21390242174155       -5.20222767896208        0.33515327169070
N           -7.06964477262753       -6.21485211335795        0.04013547785398
C           -7.67838372534316       -6.01843163828052       -1.10364280835487
C           -8.64110812482910       -6.93681807393615       -1.67283961466646
C           -8.99457685538830       -8.11193193350007       -1.02475350177475
C           -9.90981498643764       -8.95440254684752       -1.60514785747986
N          -10.50520270694694       -8.73760769248776       -2.76852322112876
C          -10.16220427772551       -7.61361472398929       -3.38016049472757
C           -9.26054094081648       -6.70091584331237       -2.89265602094397
S           -7.20512439538501       -4.51676775317685       -1.88635853327054
C           -4.36308739930997       -2.82069382368014        0.55686771434909
C           -3.56903968934882       -1.70221202162982        0.61492738266643
C           -0.69593226330625       -0.76219269437025       -0.03296244473526
C            0.58002920767066       -0.85477020038160        0.47544936241028
H            2.08879144348376        0.09063204046558        1.65397024888839
H            0.71526868599534        2.07199738128701        2.13606609992203
H           -1.56670807354021        2.23312761706516        1.23270296133389
H           -5.28987344398807        1.41476147840056       -0.05051965577164
H           -6.12167548842283        3.58845085142056       -0.84359584822057
H           -4.59954553128022        5.13960826032736       -1.99360722445118
H           -2.25087545024885        4.51023867531927       -2.35873670108116
H           -1.43050054998354        2.32639265040473       -1.58076969156699
H           -4.63173840432138       -0.12912447379886       -2.16546899443219
H           -6.05916403409090       -2.12467455106570       -2.26732232613427
H           -5.64339714583570       -5.22650406237769        1.25242655942329
H           -8.54550643124697       -8.34805926524117       -0.07626605509302
H          -10.17882569498200       -9.86679666541885       -1.09426978303203
H          -10.63915715061922       -7.42234930504298       -4.32963703288716
H           -9.02628026035474       -5.80646871335850       -3.44228790353848
H           -4.27756218320646       -3.57344095210936        1.31996098958594
H           -2.87360208781844       -1.57284021511816        1.42554659304439
H           -1.09421184810164       -1.54748223033905       -0.65116019411978
H            1.18221701541633       -1.72283325327552        0.26274893055261
