40
 energy: -8.468322540531 gnorm: 0.000798689011 xtb: 6.5.0 (97a52f5)
C            1.21606313704443       -0.22048879625839        0.38291443368022
C            0.61617076573147        0.91336442656703        0.89520469681775
C           -0.72221158627255        1.14710944003117        0.67239839777941
C           -1.48738938752394        0.24928147008077       -0.06793135605277
N           -2.88228870602202        0.49499623449103       -0.30436805053112
C           -3.33888146344754        1.83692827436874       -0.53594976171735
C           -4.54985333167770        2.27841439422795       -0.00828461124349
C           -4.98226657763384        3.56752923099695       -0.22454092699110
C           -4.21449883621378        4.43959980816532       -0.97162961894162
C           -3.01114601069780        4.01687064944076       -1.50195396007970
C           -2.57623154154513        2.72849313671365       -1.28641573225137
C           -3.81360976451130       -0.59344917399721       -0.31401100849494
C           -4.91844897399683       -0.58211601806592       -1.16352562128079
C           -5.80529455520999       -1.63028138149113       -1.17588774227233
C           -5.63137669387176       -2.73400449635478       -0.33939428067479
C           -6.58585028690905       -3.83523882116928       -0.37215297589192
C           -6.57799279668349       -4.95967483449927        0.41050814768437
N           -7.58245581363064       -5.86075303412343        0.19625236457087
C           -8.37582153922714       -5.45908829050054       -0.73997603824054
S           -7.95236967685206       -3.92500535572211       -1.44449551227831
C           -4.52439142171805       -2.74117171769453        0.51283026340423
C           -3.63609215668187       -1.69365742672064        0.52351234476685
C           -0.86705449101967       -0.88821950509252       -0.57918048738876
C            0.47136286121851       -1.12004154755043       -0.35473876315534
H            2.26370389539548       -0.40274996160529        0.55806272477939
H            1.19659421154422        1.61552246966994        1.47103061549115
H           -1.19606563109633        2.02537913327873        1.07439630208896
H           -5.13873039062556        1.59785680575758        0.58137014227740
H           -5.92004767162260        3.89743622288063        0.19157252511091
H           -4.55358899930337        5.44863807388381       -1.13981714833500
H           -2.41201155399966        4.69652350779704       -2.08559851294043
H           -1.64238882778239        2.39185520890989       -1.70128306650105
H           -5.05918386999921        0.25686713800299       -1.82209214042971
H           -6.65216129894976       -1.61272216767568       -1.83903184177761
H           -5.83081033702658       -5.14618717979838        1.16913055328987
H           -9.23319596387803       -6.02749163895201       -1.05310886727819
H           -4.36605071611841       -3.57904608939861        1.16809761075738
H           -2.79301088299499       -1.70493316725246        1.19178076662573
H           -1.44918050785713       -1.57999981685987       -1.16238454016531
H            0.93904739166909       -2.00400520448839       -0.75644932420944
