69
 energy: -15.202415182653 gnorm: 0.000612944195 xtb: 6.5.0 (97a52f5)
C            1.32468775421919        0.13329407968732        0.13628241641243
C            0.74964777835301        1.33543708966698        0.50047225935766
C           -0.59862545758745        1.54136043060540        0.31164871116093
C           -1.39844495235509        0.54738572329947       -0.24724422283626
N           -2.80245359554730        0.75960865433961       -0.45544473380094
C           -3.29484624047223        2.05983994353144       -0.81349263397523
C           -4.51885777554423        2.51145431360077       -0.32539112348566
C           -4.99067027168850        3.76154913559318       -0.65732705060770
C           -4.25085539905994        4.58306931351783       -1.48562299563557
C           -3.03733909313530        4.14804273205370       -1.98233121386806
C           -2.56301542229221        2.89860883350240       -1.65072839939491
C           -3.72119645652777       -0.33299862180850       -0.31026056041962
C           -4.76405849109754       -0.51078635589344       -1.21845486155252
C           -5.63966633809062       -1.55845354864063       -1.08461894814351
C           -5.51808297717020       -2.46511535878350       -0.03079055549250
C           -6.45125263309267       -3.57737536700866        0.14272835693490
N           -6.68690914655285       -4.15061658371238        1.31465265723293
C           -7.58219513825475       -5.13689902777075        1.08155597214326
C           -8.17710187223125       -6.05078297335896        2.02562406044379
C           -7.87078324078914       -5.97445511691016        3.38605400882598
C           -8.44302849659118       -6.84071340506211        4.27968665547496
C           -9.33630214604691       -7.80340236532345        3.83256819117139
C           -9.64993865694551       -7.89609040615400        2.49919267999900
C           -9.08325336167155       -7.02871210660188        1.55432086152086
C           -9.39455287210175       -7.11256095423061        0.12324515713129
C          -10.26101994656817       -8.08568173611409       -0.39477252065145
C          -10.53341198018664       -8.15964761629497       -1.73778563360628
C           -9.95094581183859       -7.26329505898164       -2.62145669482109
C           -9.10097740739159       -6.29894397981592       -2.15189206278335
C           -8.80722079435360       -6.19988220169282       -0.78771273777825
C           -7.90595920321810       -5.20120017995216       -0.27653456038695
N           -7.18495290206285       -4.19086294377753       -0.89014882177236
C           -7.10069317070171       -3.91439833139431       -2.30548868250653
C           -8.09312042254155       -3.18113560776136       -2.94404653650451
C           -8.01336180012588       -2.93196932442613       -4.29641423060513
C           -6.94272254092425       -3.41063567901849       -5.02612393886803
C           -5.94960632098353       -4.13806415997529       -4.39984926260413
C           -6.02704584918428       -4.38846553594592       -3.04766809245896
C           -4.48265228118111       -2.27634656424914        0.88510022871366
C           -3.59606099766140       -1.23779508038298        0.74350642015182
C           -0.80380765416199       -0.66017661086975       -0.60568848041423
C            0.54466422579605       -0.86385175585488       -0.41648997587337
H            2.38046207686666       -0.02627373738585        0.28291856058680
H            1.35752367359475        2.11337483165952        0.93275509665622
H           -1.05261090733701        2.47275924900861        0.60160419620757
H           -5.08656923501828        1.87007802393157        0.32583756858073
H           -5.93713251113468        4.10030228524493       -0.26864856359369
H           -4.62031844491870        5.56198008970782       -1.74414093389421
H           -2.46120946620496        4.78779626920900       -2.63069600157370
H           -1.62285138011050        2.55149109480723       -2.04227343653024
H           -4.86411937119233        0.18246326780607       -2.03519229248832
H           -6.43644253214820       -1.68454565433000       -1.79385149690317
H           -7.17815871549767       -5.22174857321059        3.71968950504177
H           -8.20122411255810       -6.77475666354922        5.32794579005446
H           -9.78571314724213       -8.48291489776491        4.53840050688203
H          -10.34587129590500       -8.65076191360959        2.18169917300190
H          -10.72202796230328       -8.79612048049093        0.26658980314469
H          -11.20111052393189       -8.91933742494070       -2.11056844775357
H          -10.16653743754888       -7.32827321620723       -3.67553128229703
H           -8.64577174345813       -5.60748568601034       -2.83551633435605
H           -8.92373708458158       -2.81574652652892       -2.36551947029156
H           -8.78783882507882       -2.36414192051515       -4.78563058556330
H           -6.88223422971629       -3.21650883674221       -6.08456238349740
H           -5.11358252778673       -4.51043876642475       -4.96906653621372
H           -5.26047472315325       -4.95478674927020       -2.54803972178121
H           -4.38681905744086       -2.96543919810511        1.70581834011973
H           -2.79927555875647       -1.10003762590474        1.45325025352631
H           -1.41458474059615       -1.42970584271392       -1.04445773412711
H            0.99251914270551       -1.80178708931561       -0.70171267875815
