57
 energy: -12.410531048363 gnorm: 0.000708803162 xtb: 6.5.0 (97a52f5)
C            1.35961702773497       -0.06721635266130        0.16174074971102
C            0.79649797143528        1.04076380971952        0.76487598081827
C           -0.55917610059672        1.26330736575353        0.67179640281007
C           -1.37835871549858        0.37930068391309       -0.02684351014150
N           -2.79075328081954        0.61664274039945       -0.13507757734927
C           -3.27602143986867        1.95643770966348       -0.31364588717897
C           -4.46396401703518        2.37003661503623        0.28478243508219
C           -4.92824658150048        3.65464751273947        0.11123975074196
C           -4.21537327076974        4.55026750326649       -0.66227935381029
C           -3.03503800399470        4.15580025015269       -1.26204258940587
C           -2.56896161263140        2.87172278210569       -1.09004592738043
C           -3.70705615763135       -0.48494065448259       -0.11746075946273
C           -4.85796176232508       -0.46827464057187       -0.90460458430497
C           -5.72461109323078       -1.53212588268355       -0.90434215835520
C           -5.47658359805797       -2.65800898279993       -0.11820852576694
C           -6.39193874173171       -3.79723336023805       -0.10372118490462
N           -6.49724211914970       -4.63293194775904        0.91534149341928
C           -7.45626990578987       -5.54085079678896        0.57329605799765
C           -7.95441103936907       -6.64562123323144        1.28155209102581
C           -8.91495508237211       -7.42919009334451        0.69572610735436
C           -9.39948361935234       -7.14677675647173       -0.58934886169026
C           -8.92940006604409       -6.07316442382684       -1.30099283440107
C           -7.95619886764502       -5.26074301045572       -0.71511832591015
N           -7.26642201549598       -4.13810869889268       -1.16015768522820
C           -7.34289948921397       -3.58607883014216       -2.48969629961253
C           -8.54318000336694       -3.08670734448362       -2.98037196376827
C           -8.61199768903698       -2.55879410856630       -4.25090877716760
C           -7.48482540380871       -2.52467301939327       -5.04884471390131
C           -6.28718885631492       -3.02188154887573       -4.57313255030686
C           -6.21645307695675       -3.55066275815807       -3.30332900422639
C           -4.33490400094652       -2.66605277670810        0.68297451182426
C           -3.46531679686927       -1.60367550783406        0.67972631699587
C           -0.79484437434790       -0.73253382734031       -0.62984035203143
C            0.56109905066699       -0.95280139416128       -0.53584501745120
H            2.42096478624026       -0.23999552015000        0.23465799528523
H            1.41911676978635        1.73204717769068        1.30904352714323
H           -1.00463835546982        2.12103112108163        1.14466145802779
H           -5.01022620289448        1.67080590458818        0.89351385504788
H           -5.84851701564147        3.96231000478015        0.58037562791925
H           -4.57940258110106        5.55563474173302       -0.79754459688907
H           -2.47868563365680        4.85351186989170       -1.86644183024025
H           -1.65503248353539        2.55631187658328       -1.56236785304835
H           -5.05005507859967        0.38833780199642       -1.52642006058167
H           -6.61118529647951       -1.50421719848374       -1.51166193589398
H           -7.57497870882122       -6.86016660305938        2.26440410859392
H           -9.30420437458629       -8.28003143451392        1.23035950993324
H          -10.15163165902108       -7.78497609604178       -1.02310941784386
H           -9.28894373152677       -5.84979936739245       -2.28942772123110
H           -9.41470553499247       -3.11456894370145       -2.34981198564954
H           -9.54664500984819       -2.17215908790823       -4.62306444359139
H           -7.53984330511995       -2.11107657620006       -6.04254854678253
H           -5.40746408659153       -2.99564224270256       -5.19520121222547
H           -5.28848088216077       -3.93973495192738       -2.92197479090452
H           -4.14263919649232       -3.52504142770193        1.30161215054099
H           -2.58705262793800       -1.61848734624656        1.30096400202821
H           -1.41998208937728       -1.41269685173468       -1.18163786890371
H            1.00011502976842       -1.81619587345190       -1.00847342474943
