78
 energy: -16.764858386685 gnorm: 0.000291007018 xtb: 6.5.0 (97a52f5)
C            1.17681170164687        0.58869264169930        0.75791501746133
C            0.35324695997382        1.58027454676344        1.25450390403996
C           -0.99036557640855        1.57674209541420        0.95394850705431
C           -1.53650754778978        0.57844978272875        0.15093899817010
N           -2.93753138573852        0.57812048445113       -0.16607740709724
C           -3.60108166032091        1.82194694678934       -0.44114103725721
C           -4.90511159726143        2.04614192163413       -0.00641353474551
C           -5.54188861674943        3.23569798646905       -0.28031463347551
C           -4.88892507374267        4.22329253567519       -0.99197327712057
C           -3.59423967638844        4.01749140672050       -1.42724267794004
C           -2.95515012944802        2.82910900980779       -1.15405045031739
C           -3.65525396147164       -0.65726335834127       -0.25816233751393
C           -4.69221868645937       -0.81442201150294       -1.17825402764910
C           -5.35660356622173       -2.00967772337236       -1.29141590452368
C           -5.01255080566022       -3.09987675782187       -0.48796619256796
C           -5.67308228772800       -4.37843254947443       -0.63330024756375
N           -5.37030358944877       -5.44145320899374        0.07422346780441
C           -6.10379444130657       -6.51875685394690       -0.30247591661552
C           -7.00306569661647       -6.33211786274586       -1.32085900858354
C           -7.82991489105596       -7.34871423250025       -1.91091669878413
C           -8.79156642368883       -7.14406640842320       -2.86687808032686
N           -9.42476281201003       -8.24368423512388       -3.34642469080593
C           -8.98167498472300       -9.34236234549592       -2.78168576564977
C           -9.43426341724798      -10.66869075671437       -3.14012946932766
C           -8.90486478777074      -11.80804929932574       -2.52838673637420
C           -9.30268191769662      -13.06350939991460       -2.91434026347672
C          -10.24488275698318      -13.23449608483753       -3.92915415569793
N          -10.62238572636127      -14.54372327320576       -4.36944901365201
C          -10.63753862375740      -15.64371620076908       -3.44643416366274
C          -10.19253692137806      -16.90453047104165       -3.83670982772764
C          -10.20103643046994      -17.95853668555148       -2.95113098450754
C          -10.65529901058607      -17.77388999061152       -1.65984716685059
C          -11.10240047438102      -16.53019285153692       -1.25797204187768
C          -11.09471283816087      -15.47452788580366       -2.14182373188872
C          -10.92820112004470      -14.77618508754092       -5.75373444332472
C          -11.94073717957829      -15.65954376336573       -6.12000329556593
C          -12.22984995130233      -15.88583843145196       -7.44700443334866
C          -11.51299438156365      -15.23601950702764       -8.43289480861277
C          -10.50372501118395      -14.35909606731423       -8.08624208006583
C          -10.21268445153109      -14.13149338875295       -6.76008670646670
C          -10.78718304888445      -12.09717130034724       -4.52834187397401
C          -10.39027482203755      -10.84137813346750       -4.14305732249156
S           -7.75653482444191       -9.04512459712943       -1.55249355254481
S           -6.95795176338081       -4.66556928326325       -1.80208751922303
C           -3.98303738785253       -2.93704671409179        0.44118612697206
C           -3.31973057093119       -1.74094215414853        0.55406592980672
C           -0.69191972441257       -0.41218167470307       -0.34469274461074
C            0.65127985275445       -0.40656049590943       -0.04279710281458
H            2.22830587392559        0.59199135307739        0.99410427865703
H            0.76294553028346        2.35746543618248        1.87863913957033
H           -1.63815065236076        2.34268741879366        1.34290866645032
H           -5.40532512194009        1.27629271909226        0.55469435808234
H           -6.55114031020658        3.39674975577787        0.06154716504116
H           -5.38891850188947        5.15334250527383       -1.20755907160777
H           -3.08427282994809        4.78744372945392       -1.98275199395657
H           -1.95015897505969        2.65896555160430       -1.49843127219944
H           -4.95042417748007        0.01248383834153       -1.81598847581616
H           -6.14586334881840       -2.12518784706256       -2.01314774054981
H           -5.95806271923691       -7.48093954944502        0.16738554508923
H           -9.02145123441991       -6.15997445451141       -3.24962925283656
H           -8.16616016793462      -11.68679852001951       -1.75586348822092
H           -8.87296313909472      -13.93480748792893       -2.45245314524435
H           -9.83159363491348      -17.04015536131441       -4.84115641301240
H           -9.85129524684604      -18.92829382068756       -3.26531821641113
H          -10.66058726150075      -18.59929397621936       -0.96696209581391
H          -11.45885146732772      -16.38621186311254       -0.25118649761190
H          -11.45076547280799      -14.50592385438784       -1.83739177809476
H          -12.49942662689698      -16.15834735891318       -5.34758751378446
H          -13.01701782572135      -16.57056026521754       -7.71706094401621
H          -11.74004475232807      -15.41363710396103       -9.47132083064331
H           -9.94228793537204      -13.85346903486196       -8.85475672670184
H           -9.41953903912722      -13.45869707117359       -6.48465444496629
H          -11.52506591838731      -12.21967351545873       -5.30154729288681
H          -10.80467850157043       -9.96944019154436       -4.61767423749432
H           -3.71111364466751       -3.77198388613000        1.06266597902784
H           -2.52997613748631       -1.62448306818141        1.27514574188757
H           -1.10426462007878       -1.17826839050525       -0.97770783453625
H            1.29373989706196       -1.17887399959347       -0.43300823205357
