48
 energy: -10.437963201800 gnorm: 0.000178284805 xtb: 6.5.0 (97a52f5)
C            0.66424216733353       -0.49964291572091        1.11227449642936
C           -0.14491011688954        0.49975667439353        1.61661072551957
C           -1.46388303472496        0.58096300446942        1.23050192067556
C           -1.99912608241686       -0.33755436363124        0.33075508712139
N           -3.37108197169112       -0.25154934734494       -0.08226356892370
C           -3.99406264850589        1.03044583779870       -0.25310929780327
C           -5.33051894670492        1.21932748655400        0.09080008885191
C           -5.93013036483272        2.44841969347339       -0.06618044610803
C           -5.20712467581981        3.51183755191228       -0.57026082507622
C           -3.88129992312280        3.34049043926413       -0.91800217039768
C           -3.27944911752976        2.11215246643371       -0.76174561779483
C           -4.12481972824173       -1.44625994139435       -0.32300331087380
C           -5.02277971926061       -1.51910999737215       -1.38783010345896
C           -5.75192928086129       -2.65861113747353       -1.61524181041942
C           -5.63072346593349       -3.76742589125876       -0.77441945376493
C           -6.42743948239080       -4.98695635263899       -1.03356007174085
N           -6.42725964462281       -5.48758558242083       -2.25541972738111
C           -7.13167595033271       -6.60442458538060       -2.42153808989691
N           -7.84140392856650       -7.29312848280370       -1.57707472711983
C           -7.88643066298362       -6.77813240794889       -0.32629788528576
C           -8.65699799714938       -7.40622127153347        0.67272313733076
C           -8.74570624650944       -6.87820149366246        1.92886572992559
C           -8.07220900103486       -5.69742547748854        2.24362260707984
C           -7.31150097976484       -5.06979910231832        1.30110180811915
C           -7.18871151731137       -5.60124872591424        0.00075630222870
C           -4.71795581944900       -3.69756425761557        0.28324561982547
C           -3.98067977748956       -2.56147516250481        0.50220755828301
C           -1.17061283823605       -1.34061372941519       -0.16651441351652
C            0.14809584815210       -1.41958553388834        0.22061351378135
H            1.69703029913623       -0.56146383935838        1.41385642693209
H            0.25683619974882        1.21681636647072        2.31364708826127
H           -2.10062829948443        1.35222341514652        1.62703274157828
H           -5.88573130081506        0.38978706240782        0.49235681746737
H           -6.96425050069396        2.58136996993614        0.20650946280210
H           -5.67698542916689        4.47403538751675       -0.69198266072059
H           -3.31741780879322        4.16948712071208       -1.31319619532712
H           -2.24979114127315        1.97075052278827       -1.03983302963247
H           -5.12605015296354       -0.66774853882825       -2.03743510461684
H           -6.43820554005249       -2.70939401433329       -2.44245367203118
H           -7.10473146226753       -7.00600626853594       -3.42534089265874
H           -9.18321244972293       -8.31008923624128        0.42105379616369
H           -9.34416749174588       -7.36851312056102        2.67902576166211
H           -8.15892804933992       -5.27975839794385        3.23331743298303
H           -6.81408518052075       -4.14733192506720        1.54114549710209
H           -4.58557664614113       -4.55804519105035        0.91616596504915
H           -3.28737605919465       -2.51207363997002        1.32342295817708
H           -1.57536150051234       -2.04827370470325       -0.86866611290698
H            0.77907742067460       -2.19883936296782       -0.17444335588588
