63
 energy: -13.154501805350 gnorm: 0.000525407900 xtb: 6.5.0 (97a52f5)
C            0.29972013680258        2.34246637153741        0.41708893064244
C            1.56406446467271        1.46390480925436        0.34000964107662
C            1.32843431221017        0.20475623017240        1.19616779617291
C            1.78735338077465        1.05839735311267       -1.12856106752461
C            2.80666873649020        2.20790922338202        0.85405257876511
C            4.03927758782856        1.53211921951009        0.91213198090440
C            5.18705519626825        2.13462641437321        1.36016421395025
C            5.14314542149743        3.46786062169055        1.77264181777935
O            6.14196212354591        4.29594277374802        2.26177913827757
C            5.56718344640683        5.53267278720881        2.51998613861872
N            6.18661763106124        6.61112025418410        3.00547647173074
C            5.39894590635806        7.67899713924517        3.15480164997711
O            5.77754045909834        8.92400867011624        3.63542598459275
C            4.65358933771068        9.73832191079612        3.61329203589486
C            4.49467913401276       11.07730580420988        3.98538919971691
C            3.26607002506480       11.66753442225005        3.85580646429909
C            2.15353875035275       10.96452240095467        3.35384926513386
N            0.88324918790544       11.62520807537420        3.21234233362053
C           -0.32388797000529       10.92849510145359        3.54710293815987
C           -0.34934645931221       10.00951574993216        4.59366100664628
C           -1.50658341242956        9.33329852209176        4.90791872242055
C           -2.66031271979860        9.56059634416292        4.18314838227834
C           -2.65166556781793       10.46751300776703        3.14138876409392
C           -1.49577017483412       11.14512697901640        2.82553042295232
C            0.83699184227753       12.97232091894532        2.72326664170632
C            1.73702595321021       13.40865002562518        1.75364280751559
C            1.69860280437949       14.70466817812181        1.29105238491701
C            0.76190184567043       15.58983708588248        1.78811107218787
C           -0.13692958448526       15.17345544833125        2.75079921230358
C           -0.10044093424173       13.87791484295228        3.21496005492523
C            2.29744424063131        9.63812089896032        2.98923067863637
C            3.54211169975927        9.02785700982405        3.12174736927704
C            4.00933046447827        7.70606917436770        2.83123063979376
C            3.36984365295189        6.58848415600932        2.33424976840502
C            4.18155747188371        5.48147108699234        2.18369585658933
C            3.91831208208625        4.15561201630659        1.71132022133517
C            2.75870109921210        3.52895604575476        1.25478400915694
H           -0.57332039917506        1.79435432742991        0.06461282596224
H            0.40079022691100        3.23206624042486       -0.20329972931942
H            0.10172603824909        2.65412475757534        1.44198181221905
H            0.43070661376385       -0.32200223904194        0.87469294888127
H            1.20586293760745        0.47063341870518        2.24541342997549
H            2.16363642513114       -0.48953204210452        1.12125267111377
H            0.91401412437669        0.54440482483552       -1.52828731338905
H            2.64163486632734        0.39070689701658       -1.22856848667400
H            1.97473835599810        1.93635211345603       -1.74561300513060
H            4.08220774268076        0.50606770912523        0.59140997906131
H            6.12092249321032        1.60337922630771        1.40030591847131
H            5.34064100565457       11.62056478308702        4.36616764179067
H            3.13083128552796       12.69586954971414        4.14160627825991
H            0.54981887075918        9.84195448161440        5.16013683350126
H           -1.51284975539412        8.62599380969983        5.72099525068378
H           -3.56557696380537        9.03038194260658        4.42953698131134
H           -3.55079762285833       10.64392774212367        2.57401369381380
H           -1.48108512672445       11.84318612494834        2.00699610388065
H            2.45929231142109       12.71266266642672        1.36446547613276
H            2.39991734348756       15.02897560047852        0.53974921602872
H            0.73283776358859       16.60435837292405        1.42580357355841
H           -0.86643249927338       15.86431144727770        3.14064567749126
H           -0.78931261564208       13.55218438322968        3.97451692115672
H            1.46154863176215        9.08880958666389        2.59907804988320
H            2.32548644349494        6.58014821636783        2.08485653524739
H            1.84405993124319        4.08978898551867        1.22673518913396
