89
 energy: -15.691150303221 gnorm: 0.003825132900 xtb: 6.5.0 (97a52f5)
C            0.62288017412490       -0.35391741256610       -0.34489258598049
C            0.00672318560271        0.36679369886245        0.65975895576258
C           -1.35405423709815        0.26691433758538        0.84679165713240
C           -2.12557868895238       -0.55796667483069        0.03132885699463
N           -3.54245855692482       -0.67067501988989        0.23007756375642
C           -4.31108320017898        0.47560546011984        0.62495239531048
C           -5.37808047071800        0.34565330392444        1.51141620610743
C           -6.12184348740356        1.44394137550997        1.88303966872313
C           -5.81615565385150        2.69228231198514        1.37739786169749
C           -4.76049152185252        2.83821058705134        0.49819105437249
C           -4.01427202460042        1.74155636970049        0.12569548754503
C           -4.19466208415796       -1.93639791657124        0.03833569819707
C           -5.46309479441979       -2.00640632361117       -0.53487512560705
C           -6.08860408900075       -3.21792313575918       -0.71238893074046
C           -5.46634869675239       -4.39778068697524       -0.32149028136533
N           -6.12327306570027       -5.66847794056473       -0.50384663953316
C           -6.73317317811217       -6.12054349626091       -1.67153815678712
C           -7.22607870740738       -7.37546464370492       -1.47733605635024
C           -6.93108195068266       -7.75416583586460       -0.13885005954876
C           -7.18670375857293       -8.92289024572505        0.59196302976065
C           -6.78243624459623       -8.99924960950625        1.91450295583111
C           -7.01819087308515      -10.16078401383302        2.70293638484765
C           -7.88744861921774      -11.17454721015119        2.49937560815061
C           -8.01639211436172      -12.27332170750227        3.32791385971534
C           -7.31230249891069      -12.50118730168584        4.45667273371143
C           -6.35592008716154      -11.70327816476000        5.07618910116975
C           -6.82416666406330      -10.73993683896887        5.89077511108654
C          -12.57914874709783      -11.58408397973196        1.76061764845988
C          -12.32946680489612      -10.65964202607676        0.90618349086503
C          -12.99539813937456      -10.42185834919253       -0.21030073851645
C          -12.76188538776723       -9.46288514548066       -1.09072320252685
C          -11.84943900052785       -8.56268194559954       -1.04185336496872
C          -12.05859996163748      -13.13466800643542       -4.30971746077605
C          -10.84773930479547      -12.79946258050308       -4.12357130816488
C          -10.37773975313029      -11.46696141467462        6.30275408862257
C          -11.07512005055454      -12.53996427468906        6.20429304843413
C          -10.73926150815076      -13.77539743142039        6.52895410610367
C           -9.60661217693313      -14.23602457215362        7.04103990181845
C           -8.47725482042068      -13.52399761338530        7.38550423930678
C           -7.35125351710566      -14.02041482249695        7.84018730088372
C          -14.76852280768891       -6.31814174773024        1.62718378087441
C          -14.28232931300682       -7.56375160495762        1.68422645235197
C          -14.56189837571848       -8.45364293731524        2.70753524897717
C          -15.32919485740491       -8.17888026897675        3.72532371027854
C          -17.57637897771550       -9.00473480886115        0.56624108228330
C          -17.72407824681159       -8.89803882601193       -0.69092227883859
C           -6.11331142873945       -7.89417536879381        2.50071782823175
C           -5.84943766020019       -6.75114103007360        1.79803849284662
C           -6.24909552970999       -6.67835999016672        0.45868301867334
C           -4.19842110880447       -4.33234949233027        0.24377660703578
C           -3.57268850164032       -3.12179605237654        0.42240030318298
C           -1.48885906010457       -1.27794060128261       -0.97758787471604
C           -0.12802955218665       -1.17570011943384       -1.16281480485151
H            1.68807068518367       -0.27525814263189       -0.49009646152376
H            0.59306993799958        1.00601978731886        1.29949576544029
H           -1.83784127849347        0.81661140367771        1.63507739152669
H           -5.60847617649695       -0.62779196389997        1.90721021209843
H           -6.94356966001629        1.32906280661787        2.57106190513010
H           -6.39978320318904        3.55085580845650        1.66820077766842
H           -4.52207716078139        3.81159633204056        0.10178273611717
H           -3.19788032089847        1.84768321006454       -0.56695177200164
H           -5.94516539019699       -1.09477222726599       -0.84142468290755
H           -7.07022989246555       -3.26724492434859       -1.15036914042156
H           -6.79620310346903       -5.54502300271054       -2.57962904602628
H           -7.74997200481942       -7.97828233733186       -2.19953808106068
H           -7.68611285623776       -9.74726036173961        0.11837494237896
H           -8.53105023367171      -11.11409623758509        1.63742199698997
H           -8.74314199315656      -13.02336111702956        3.05806494367788
H           -2.32083397125405       -9.67419676649008        5.42324974535962
H          -19.70205184128359      -10.38563752405080        4.53427341200240
H          -17.19451445034261      -13.24985808839036        0.79730763364132
H          -13.90317596416040      -16.76740824441898       -6.73705403357854
H           -9.75641908714178      -15.83875841633635       -7.42358361226321
H          -10.31553529766576      -12.17035561464159       -4.77600967475447
H          -13.88646161821964      -15.40725000414366       -0.68822352524239
H          -16.61398617145862      -18.93274862518686        0.22713470116936
H           -8.41481219174402      -24.42883650109856        8.80260893906342
H           -6.52354036904887      -13.42335216459401        8.08526454228084
H          -14.55646272105904       -5.63924211323165        0.85377567613853
H          -13.63967158758010       -7.90048349574575        0.88634863732554
H          -14.11836643417068       -9.43561795742392        2.66580755979354
H          -16.73931048597853       -8.63168452974791        1.08012506367429
H           -8.90031388191036       -6.37050814785284        1.75553392226651
H           -5.81289446903234       -7.97053173879690        3.53184980112726
H           -5.35083321861994       -5.91424971017333        2.25331169280195
H           -3.70926819170507       -5.24655949693790        0.53159503692167
H           -2.59560505122969       -3.07453174838969        0.87066369082708
H           -2.07989109347255       -1.91108971095271       -1.61591194982651
H            0.35165731615832       -1.73664666457998       -1.94836439919982
