89
 energy: -16.437766096291 gnorm: 0.002806608433 xtb: 6.5.0 (97a52f5)
C           -0.48635032558293       -0.08194832793016       -1.42920676645446
C           -0.64628639580953        0.28270606256533       -0.10639829155236
C           -1.85044809370794        0.07159820781257        0.52727312281700
C           -2.91927433770073       -0.50956418492426       -0.15143480708964
N           -4.17225291243453       -0.73640996145880        0.51102267317406
C           -4.66347412526766        0.21738841135239        1.46431178934750
C           -5.34255254663048       -0.20082699582195        2.60657706147416
C           -5.81625088631790        0.71598392699587        3.51820561438990
C           -5.62027570774014        2.06727792917027        3.30730255844147
C           -4.94815517386893        2.49850137464891        2.17996575301343
C           -4.47354645818763        1.58347658243259        1.26692374367591
C           -4.92741709855591       -1.92477995506064        0.22918843606335
C           -6.32019217438409       -1.89965468462193        0.21672097941605
C           -7.04114385746628       -3.04096790186060       -0.04105519063831
C           -6.39474865679456       -4.24394917162216       -0.29766860756115
N           -7.15636806386299       -5.43738178388133       -0.56832971584502
C           -8.25962905204281       -5.52818968243515       -1.41375168032144
C           -8.73406126141182       -6.80431762700900       -1.41514093196604
C           -7.91949002874618       -7.56817510072992       -0.53609037964085
C           -7.95893164793968       -8.91140831990365       -0.14499583663907
C           -7.03253786854075       -9.38619671020509        0.76567758307757
C           -7.08015943205627      -10.75794679768322        1.14584897243820
C           -6.10739800090822      -11.55868281959395        1.62889871766007
C           -6.27629186441402      -12.90193728891578        1.90880452097362
C           -7.41666105340165      -13.60557452316800        1.75890649668588
C           -8.70798157262975      -13.16965853897284        1.30747025898190
C           -8.84979689340790      -12.93919829400724       -0.10263292828032
C           -9.56795750422457      -11.97708003403299       -0.66067282473681
C           -9.67239736965437      -11.70316830734455       -1.97670609625247
C          -10.40132482310113      -10.66702246741127       -2.54380158991636
C          -11.18173487060877       -9.72217663560153       -1.89434430425928
C          -11.38356600287702       -9.66312015955019       -0.57310473884425
C           -9.84113958738625      -13.75899580184289        1.96570631118379
C          -10.21202607932292      -13.56571510603063        3.21620983612164
C          -11.24685620362357      -14.10450840443315        3.84114175266362
C          -12.14975603098479      -14.93333593201828        3.34612672781928
C          -13.17923828220023      -15.50521092542539        3.94759185497864
C          -13.56867644657431      -15.47005106625615        5.21630587650192
C          -12.95033171789086      -14.90515097925555        6.31636643237216
C          -11.75654057593552      -15.18370752237326        6.78329215515699
C          -10.40019472205080       -7.14882941485307        2.07728471566884
C           -9.42929740330096       -6.38988561598028        2.43483349441755
C           -9.28000358210953       -5.09610363485565        2.19534580866695
C          -10.07750468655457       -4.32501984707298        1.55568835943947
C          -12.36372872357093       -6.04171276933739       -0.79685299370765
C          -12.24220907553099       -5.42163290206959       -1.93126860690992
C           -6.06813161672692       -8.49523160691445        1.30080474521352
C           -6.01780970956405       -7.17907044725594        0.92897533629073
C           -6.94310472634923       -6.70474853906622       -0.00912573358912
C           -5.00558023061300       -4.27196386532184       -0.29444316949585
C           -4.28358972828194       -3.13217001265490       -0.03251498627974
C           -2.74210043954186       -0.86981390107322       -1.48544395861393
C           -1.53681234034736       -0.65815948820374       -2.11694198759496
H            0.45682042583570        0.08292960602485       -1.92438118124911
H            0.17261786090886        0.73221012104831        0.43138373999516
H           -1.97724181267476        0.34436467912653        1.56039898653681
H           -5.48399773201503       -1.25485396558187        2.77019030777079
H           -6.33973795611317        0.37852066559333        4.39786859931140
H           -5.99192610500103        2.78423682694874        4.02107897220498
H           -4.79560355610954        3.55251165940046        2.01397060135950
H           -3.95751920934604        1.91393268612831        0.38246987840875
H           -6.82527959023773       -0.96931676721149        0.40893799840118
H           -8.11668816634688       -3.02049108519127       -0.03504151949234
H           -8.65863379129518       -4.69996011626253       -1.97542601340569
H           -9.58342669324440       -7.17645063862005       -1.96132667906137
H           -8.70278856570851       -9.56791231120416       -0.55377792537856
H           -5.13170106485345      -11.12711559088464        1.77543775549900
H           -5.42217629794638      -13.44773095522744        2.27588055224339
H           -7.19814487671153      -14.88553076402211        6.27412365398992
H           -9.11799851747492      -12.34486226616940       -2.64412561573152
H          -10.35305776198187      -10.58583951491173       -3.61953966000395
H          -11.66763179440946       -8.97645637951767       -2.50538563630206
H          -11.96572470643084       -8.93533458742625       -0.08743897957401
H          -14.37511806380732      -12.45730825142937       -3.77865988509442
H          -17.89052523027319      -22.18848333344463        3.72980056023426
H          -11.80787782767996      -18.69420541598529        9.97304179465565
H           -8.54784192763022      -15.93489439675640       10.73030618680599
H          -11.34943625152917      -14.70839220366907        7.62708649651166
H          -13.49186895353610      -12.01324517351597        4.54719831960075
H          -16.90324840254609      -12.86649787796404        7.08348133292119
H          -18.30869772345141       -1.68237065091171        6.35083503509450
H          -11.62930407493355       -6.04686182539132       -0.04614377540373
H          -11.39497438110543       -4.86406616020166       -2.20888780379058
H           -5.36750917395654       -8.86887731671697        2.02696618058713
H           -5.29477238474258       -6.50586965953387        1.35304553505317
H           -4.50206770884434       -5.19804708478254       -0.51030675838645
H           -3.20814708696263       -3.16161663724259       -0.01888517553729
H           -3.56608344119775       -1.31026076009321       -2.01902037981990
H           -1.41385944766093       -0.94083308305541       -3.14968107850681
