114
 energy: -24.843427062956 gnorm: 0.000792038247 xtb: 6.5.0 (97a52f5)
C            1.88370870963758       -0.70988422455530       -0.49963172638620
C            1.60162329323418        0.03679239497192        0.62808313658659
C            0.29470071173134        0.29697142414948        0.97517346016144
C           -0.75713292888683       -0.18481118041930        0.19886552297131
N           -2.12039257291349        0.08188759247576        0.55913394027363
C           -2.48615313505633        1.34195309337355        1.14024450917290
C           -3.49351175944075        1.41732690404747        2.09986322440923
C           -3.85153247737272        2.62730799971206        2.65082878577218
C           -3.21093090130694        3.78547330512198        2.25455821953831
C           -2.20978200264068        3.72811134787176        1.30411287464462
C           -1.85071265525628        2.51913458197281        0.75137868902413
C           -3.12877377609225       -0.91330109522947        0.32128688286943
C           -4.39829940130958       -0.54821006981114       -0.12194516551471
C           -5.36399413553851       -1.49825955166439       -0.34520177008266
C           -5.09377559018382       -2.84838013011142       -0.13501952981098
N           -6.11684659647299       -3.83948989902489       -0.32030863447252
C           -7.01540363892369       -3.73792283532507       -1.43626968367716
C           -8.31808521141728       -4.22050925189331       -1.33768134754260
C           -9.18903543695711       -4.13184144479132       -2.39892496140058
C           -8.77574146317475       -3.55584054785821       -3.58391556415056
C           -7.48646315330835       -3.07211101035242       -3.70063829034581
C           -6.61351187214369       -3.16277647594952       -2.63898444091843
C           -6.29761288214442       -4.91167519399310        0.61583659867061
C           -6.52136870001278       -6.20015706539622        0.11946358487065
C           -6.92778347191833       -7.22817329311383        0.92840906577393
C           -7.17255338040219       -7.00986479517991        2.29058854509699
C           -7.71743983139244       -8.02246097376196        3.12546869577305
C           -8.05805515111817       -7.75671832127686        4.41117988475851
C           -7.86049879789546       -6.46924709055672        4.97909818838035
C           -8.42698247583408       -6.12163883298533        6.24501642945377
N           -9.71780251149659       -6.70093104149401        6.56448555637087
C          -10.00623442185041       -7.42688896494959        7.75685005745801
C          -11.30116103847783       -7.85393101888428        8.03443037298800
C          -11.57437438297321       -8.56570984499677        9.18131852742827
C          -10.55865019999763       -8.86373747511916       10.06993740222607
C           -9.26828009631678       -8.44575451971129        9.80687432729893
C           -8.99360131411460       -7.73346644023367        8.66065111559486
C          -10.71475847133639       -6.40847671211374        5.54488183110540
C          -10.94614390208188       -5.06139039411494        5.23651651429283
C          -11.29359407671643       -4.67764123920089        3.96451735113153
C          -11.41786720370788       -5.62179200329116        2.94625697688537
N          -11.44381658765024       -5.20366276542378        1.57420903933290
C          -10.90124097385393       -3.91472459007489        1.21541465902330
C          -11.53468984634140       -3.12605726765814        0.25772671567618
C          -10.98685021471289       -1.92622756836889       -0.13790935258663
C           -9.79260055935966       -1.49571777450360        0.40738435254443
C           -9.14618619364156       -2.27322011836793        1.34786290006147
C           -9.69049204698363       -3.47297440760114        1.74616839382977
C          -11.46368662017904       -6.20061783214639        0.52597864699984
C          -10.29275044805363       -6.87800896241229        0.19609563912389
C          -10.27665757760962       -7.78878516835971       -0.83477663324954
C          -11.42963635272200       -8.03778454212769       -1.55412325256986
C          -12.59951125679003       -7.37316458350293       -1.23706944022803
C          -12.61960887542657       -6.46093421267475       -0.20565008905116
C          -11.36488200784206       -6.97388835329353        3.29093104575714
C          -11.03377577291127       -7.36369887292001        4.56939359066767
C           -8.05963258867428       -4.88746989426722        6.81430813288604
C           -7.34201610153720       -3.95608864267859        6.10041288560503
C           -6.97250274531016       -4.19490883334055        4.76485421343615
C           -6.41923771442720       -3.18498109681025        3.93177400836807
C           -6.18025124824012       -3.41521973917075        2.61512985983303
C           -6.43036405372980       -4.67932599243040        2.01365999240432
C           -6.91294570530115       -5.72764457723819        2.83733293634990
C           -7.21761407052297       -5.47225571577967        4.20551831623209
C           -3.82595790522959       -3.21523130029027        0.30903118989429
C           -2.86035658765593       -2.26437075561654        0.53217399758971
C           -0.45537583481240       -0.93677358438804       -0.93461654911980
C            0.85218636317456       -1.19594662896505       -1.27962217878142
H            2.90697020035275       -0.91335460745728       -0.77026806591932
H            2.40582137419047        0.41506997048406        1.23796753777216
H            0.06976659500858        0.86903570015370        1.85829747406969
H           -3.98525057361672        0.51175609809995        2.40951212600943
H           -4.63277245665163        2.67086017763996        3.39217849719601
H           -3.49201705464784        4.73241437946929        2.68581777355185
H           -1.71066919454521        4.63139723612014        0.99299860022607
H           -1.08035495103293        2.47101131681242        0.00175902515042
H           -4.61010454907316        0.49303845347954       -0.29072276158176
H           -6.34881505956357       -1.20978536864712       -0.66874877542871
H           -8.64336830857668       -4.65064009134189       -0.40777206625828
H          -10.19374217297168       -4.50924958150731       -2.30093188620011
H           -9.45749401794495       -3.48400517492756       -4.41556910552480
H           -7.16244789251422       -2.62418739882873       -4.62592540900752
H           -5.60596608150274       -2.79674568537775       -2.73066877799595
H           -6.39696252227556       -6.36602803097656       -0.93664901120100
H           -7.10962092336984       -8.20504514711132        0.51436796317846
H           -7.89670649499810       -8.99780206624751        2.70716350621323
H           -8.50601018530369       -8.52005587442447        5.02323071870209
H          -12.08775839295927       -7.61991466301850        7.33908780236735
H          -12.58100919763238       -8.89177728115705        9.38542481024836
H          -10.77299719791056       -9.42176578128207       10.96677180137538
H           -8.47514572610383       -8.67842831543855       10.49936416506322
H           -7.99027646301640       -7.40877858700954        8.44850919010135
H          -10.72628709264595       -4.31622309724438        5.98220540899275
H          -11.39271779730847       -3.63353622195586        3.72416069614463
H          -12.45784082375200       -3.47369396628133       -0.17160075833689
H          -11.48702443110653       -1.32513392927426       -0.87968821479511
H           -9.36041991069748       -0.56039896167557        0.09128307173171
H           -8.20471612934391       -1.94854955163192        1.75747765750985
H           -9.16665630777149       -4.10245575435511        2.44419029986263
H           -9.40289665504373       -6.67456463804768        0.76496012770921
H           -9.36369940700711       -8.30509654979483       -1.08231047921565
H          -11.41627030427708       -8.74981128364058       -2.36313103826316
H          -13.49761170196305       -7.56749658213421       -1.80036058831917
H          -13.52378025188878       -5.93433842343837        0.04498880437520
H          -11.50747915273593       -7.71319672071612        2.52286029308653
H          -10.89250457102962       -8.40648408795380        4.79662935447789
H           -8.45693463181782       -4.63123550072766        7.78190450036946
H           -7.12821107889833       -2.99408226669658        6.53317161150541
H           -6.22856742390333       -2.21411517494908        4.35548665870132
H           -5.79905178907539       -2.62076392646325        2.00241377695786
H           -3.61803394789900       -4.25682690276202        0.48074711316736
H           -1.88487809010498       -2.55132519776755        0.88389107902462
H           -1.26229488433959       -1.30630657640001       -1.54300652953563
H            1.07115945791837       -1.77842628936356       -2.15972015512009
