73
 energy: -16.198013428107 gnorm: 0.000673843789 xtb: 6.5.0 (97a52f5)
C            2.12047994882659       -2.03555221797790       -0.77362099695872
C            1.92953202569792       -0.73818542757210       -1.20839074808188
C            0.66515836109593       -0.29542176539646       -1.52716364660985
C           -0.43403088377945       -1.14408320573635       -1.41775889432040
N           -1.75511387404257       -0.68617972456756       -1.74314725025466
C           -1.95984942959675        0.23592888644508       -2.82318785397789
C           -2.94208152386484        1.22034798168687       -2.74123381557828
C           -3.13597211338340        2.10836120910549       -3.77551896335642
C           -2.35372701795130        2.03022890514231       -4.91147642155672
C           -1.37714613592967        1.05803039610211       -5.00959107528781
C           -1.18162929512512        0.16891967291553       -3.97647313461130
C           -2.87243609856870       -1.13635201937683       -0.96117261800876
C           -4.09285539676797       -1.44373342286849       -1.57217750983052
C           -5.17415277803968       -1.88276747949488       -0.83598257233255
C           -5.04220793222746       -2.01710999169151        0.53130219644232
C           -3.83245675662250       -1.71071929108656        1.15973532171182
C           -2.74898197207721       -1.27431725686015        0.41874327256282
C           -3.96491026474017       -1.93168574649111        2.60504438789876
C           -3.04545085052678       -1.76040127370555        3.63052714676402
C           -3.43236361319260       -2.04486748959971        4.92488062254597
C           -4.71581412674539       -2.49313885634275        5.19845010395575
C           -5.63626226702857       -2.66355690644653        4.18001978052953
C           -5.25718500310982       -2.38061115941886        2.88463648175493
C           -6.05811799600697       -2.48037757138078        1.58189752273209
C           -6.47395009521573       -3.94301910266638        1.33071112081778
C           -5.47445367267898       -4.87857464162276        1.12279445099270
C           -5.76740278529327       -6.20234689852388        0.87309999686465
C           -7.08187823463039       -6.61184108505327        0.82046256800825
C           -8.09225324946738       -5.70155596124901        1.03037055526306
C           -7.81580721512931       -4.36686540717500        1.30526261679580
N           -8.86994993964439       -3.42020235136424        1.52756193212358
C          -10.28518153891973       -3.49128945851136        1.62435282121156
C          -11.17583164619699       -4.56835072386283        1.66585512770091
C          -12.52370874765646       -4.32253659698400        1.76604978959428
C          -13.01961742518445       -3.01854501129580        1.83338895569088
C          -12.16762179470031       -1.94264185039774        1.81392473692527
C          -10.79495886643727       -2.17653860011255        1.71431785377328
C           -9.67334469950522       -1.26997212899034        1.71077987474810
C           -9.54055161925829        0.11755900849584        1.79788544213745
C           -8.27459062642354        0.65723192165636        1.79226936570912
C           -7.13821513451812       -0.15612812549944        1.71076414445316
C           -7.24534943985803       -1.52745947245658        1.62239649631971
C           -8.52823195488940       -2.06799653697722        1.61609720962395
C           -0.22472753591566       -2.44855563314211       -0.97565782567892
C            1.04045237712123       -2.88922390543600       -0.65791069318320
H            3.11039813522966       -2.38127016465113       -0.52431996913576
H            2.77143404470591       -0.07081064410827       -1.29595516691653
H            0.50960725309837        0.71720492549286       -1.85588902109656
H           -3.54294992967905        1.28216863590323       -1.85075811308274
H           -3.89828697700176        2.86642895933469       -3.69798161488458
H           -2.50550937337977        2.72631081982656       -5.72019879387328
H           -0.76830483065405        0.99461432948305       -5.89661794912438
H           -0.42952564817374       -0.59676110612480       -4.05254023849733
H           -4.17382332977395       -1.34087914292864       -2.64000689716660
H           -6.11112165719905       -2.12235101983465       -1.30742436837683
H           -1.82041032256069       -1.03728576829186        0.90295442768263
H           -2.05204773955287       -1.41200806060274        3.40859982901650
H           -2.72851501612483       -1.91769096718636        5.73109902027191
H           -4.99986476904729       -2.71174718391414        6.21474503545277
H           -6.63475919319132       -3.01116998550173        4.37921458689367
H           -4.44850337739691       -4.55453217615537        1.15590370504972
H           -4.97190777954265       -6.91164486276943        0.71257493132006
H           -7.31777814287850       -7.64276861350050        0.61191402191444
H           -9.11177020036356       -6.02402217952037        0.95351278758685
H          -10.81486421238048       -5.57870329047439        1.65563705011814
H          -13.21294021977463       -5.15048292835476        1.79932314741565
H          -14.08225129453283       -2.85682869080551        1.91149026133192
H          -12.53591455878308       -0.93402738891216        1.87923906247706
H          -10.41595234105459        0.73839187224012        1.86957991635335
H           -8.15351620287215        1.72604933781466        1.85843204003524
H           -6.15755531101214        0.28682238460592        1.72271326635398
H           -1.06884177720773       -3.11074598511301       -0.89317543842157
H            1.18833360929008       -3.90149479011632       -0.31842339483023
