76
 energy: -16.697795335978 gnorm: 0.000157060165 xtb: 6.5.0 (97a52f5)
C            0.83018019241206       -0.92805035994516        1.25344678027893
C            0.41201255221603        0.35039456649416        1.56903533408873
C           -0.79928888719520        0.81450690392451        1.10732164154632
C           -1.61492396305165        0.00626743107124        0.31947102124443
N           -2.88833643076441        0.47736338328485       -0.15291208678250
C           -3.02330444861959        1.83758606509936       -0.59708167547839
C           -4.22841669951863        2.51442645770862       -0.42692115838695
C           -4.36748695837382        3.81921487332657       -0.84373361984629
C           -3.30645583287464        4.47144336276201       -1.44138014637089
C           -2.10591525177257        3.81202420260585       -1.62218272168001
C           -1.96463470981340        2.50721180162578       -1.20525020537609
C           -3.99757863373249       -0.42003447034319       -0.28569941200341
C           -4.70287794930232       -0.46820763434885       -1.47707229016466
C           -5.75651469338806       -1.33846091014362       -1.65720779393827
C           -6.17925215404211       -2.20065467170371       -0.64730933334844
C           -7.28125751715555       -3.13296622343961       -0.83953979468754
C           -7.93964871790525       -3.25309326712717       -2.05871002377834
C           -9.00418408915919       -4.12362208906354       -2.22580296035678
C           -9.43271361124984       -4.89855547129563       -1.18401737383604
C           -8.80057460472609       -4.84205003178599        0.06723622032549
C           -9.26235644334905       -5.63563395464422        1.16347383202822
N          -10.33897320632585       -6.56916856794806        1.01907998723733
C          -11.36904511660018       -6.61959003708435        2.02046219322115
C          -11.92733731036933       -7.83087623122120        2.42081382818630
C          -12.91436282793811       -7.86617487088761        3.38037426939956
C          -13.36105887297995       -6.69366744849007        3.95866923145931
C          -12.81447566498292       -5.48440695469978        3.57481197078281
C          -11.82700751348398       -5.44705962000590        2.61609846621232
C          -10.33670330607929       -7.53750142037659       -0.04354536391153
C          -11.52528484066630       -7.94123392278299       -0.64652501122069
C          -11.51470113196860       -8.85864565555178       -1.67320636087962
C          -10.31835725640142       -9.38875858055347       -2.11653492622093
C           -9.13083793870240       -8.99622631227997       -1.52977077073535
C           -9.13882318846299       -8.07866266996631       -0.50339957109806
C           -8.64918535092979       -5.48190973492790        2.39621526839038
C           -7.58493110618475       -4.62372364049582        2.57126683253956
C           -7.08059525028098       -3.85465406246436        1.52440577303228
C           -5.94316668674333       -2.96267961784234        1.70074211540035
C           -5.26163549749762       -2.86857762034716        2.90948813821450
C           -4.19589441301386       -1.99933058416181        3.07603181756538
C           -3.78204155239820       -1.20782400620848        2.04079119411997
C           -4.41328803012078       -1.26612093957172        0.78926587083803
C           -5.51166580673824       -2.14989530897884        0.61037720029830
C           -7.71318714824638       -3.94551938816452        0.25095689380622
C           -1.18144048788640       -1.28108489459670        0.01310231020579
C            0.03052656594833       -1.74260160029833        0.47519406624617
H            1.77880384730686       -1.29007303435210        1.61503949941282
H            1.03425490897905        0.98502053936993        2.17881543645056
H           -1.13567200639769        1.80507109080192        1.35926262178466
H           -5.04874563167324        2.00228445349491        0.04495093515443
H           -5.30454838940264        4.33263308412614       -0.70182983561476
H           -3.41538463826503        5.49337236611213       -1.76616410972939
H           -1.27855817936484        4.31972924280028       -2.09067841486350
H           -1.03491350751019        1.98634884517606       -1.35321808648829
H           -4.39530746943119        0.17963891087416       -2.27940942736245
H           -6.26050555025351       -1.33931423776881       -2.60599950403862
H           -7.62547222068498       -2.66229632929047       -2.89923200054172
H           -9.49864991351473       -4.18808617820306       -3.18152386106404
H          -10.26826992997479       -5.56107964390247       -1.31581559587188
H          -11.56906265728068       -8.74216503005190        1.97497194891155
H          -13.33863309002725       -8.81019616939739        3.68133773256976
H          -14.13460196282051       -6.72225430931096        4.70868984049287
H          -13.16218645150263       -4.56894202087972        4.02514848054053
H          -11.40101474307294       -4.50818701887553        2.30797230140212
H          -12.45290776722825       -7.51696921013670       -0.30391309075360
H          -12.44119735546099       -9.16281862487865       -2.13237150412586
H          -10.31137314750910      -10.10759104668677       -2.91959909843386
H           -8.19699643218158       -9.40842636255084       -1.87585218470648
H           -8.21784146900577       -7.76774899499206       -0.04201822371206
H           -9.00832142333346       -6.07044488391693        3.22245528484406
H           -7.14298871704152       -4.55208493325319        3.54789258230689
H           -5.55783580029742       -3.47983949165680        3.74186352217299
H           -3.69271437265281       -1.94465196763256        4.02779599639812
H           -2.96401822013117       -0.52518101163195        2.17984349607681
H           -1.80990643117029       -1.90966657131533       -0.59324556050769
H            0.35513051135646       -2.74076773628546        0.23014116271300
