34
 energy: -7.142924996754 gnorm: 0.000790704057 xtb: 6.5.0 (97a52f5)
C            1.29466431196571       -0.23147252740635        0.11471653918696
C            0.73811745715265        0.92018715394264        0.63654592794298
C           -0.61374921240124        1.15193325929615        0.51141330619584
C           -1.43592631686381        0.23505934106527       -0.13986133717676
N           -2.84581176986520        0.47503457647168       -0.26982138655650
C           -3.33349812086286        1.81239876362502       -0.46080916132172
C           -4.51625210468264        2.23134784131606        0.14418226086785
C           -4.98300708801129        3.51417870249676       -0.03694915150372
C           -4.27834608286580        4.40257155940812       -0.82618175172968
C           -3.10406912890535        4.00250665590592       -1.43384135219945
C           -2.63503148101400        2.72026341543615       -1.25344720994883
C           -3.77230825610961       -0.61981435657913       -0.19384844484141
C           -4.90808607460574       -0.64811641845364       -0.99993888782482
C           -5.79616613588081       -1.69809828735139       -0.92724463440288
C           -5.56790270065093       -2.73869890968257       -0.04753806991643
C           -4.44696026502388       -2.72493086714759        0.75975957804852
C           -3.55713790238376       -1.67624177375169        0.68820642465009
C           -0.85873214289183       -0.92074522080773       -0.66054621564220
C            0.49314015106507       -1.15095469825343       -0.53367332833609
H            2.35278473818793       -0.41211553987271        0.21303886349227
H            1.36236436249870        1.63787782503473        1.14336629564920
H           -1.05342548386489        2.04281435790769        0.92454932333263
H           -5.05632119380374        1.53786969289334        0.76475075361283
H           -5.89847532813698        3.82584081289215        0.43866049255625
H           -4.64415334618996        5.40650970241214       -0.96723970356000
H           -2.55402384636604        4.69479275150790       -2.05008955445510
H           -1.72435870957422        2.40197226636792       -1.72920740573327
H           -5.07704571659544        0.16133349569327       -1.68840525254224
H           -6.66986876814652       -1.70845600227607       -1.55804502652765
H           -6.26370681819210       -3.55983885225972        0.00905779169700
H           -4.26898984974102       -3.53560190978971        1.44741953373686
H           -2.68710521493811       -1.65614075632898        1.32045595073859
H           -1.48558656661342       -1.62941405221905       -1.17259151536178
H            0.92647460430509       -2.04955200149838       -0.94167365213218
