67
 energy: -14.612184374633 gnorm: 0.000221181234 xtb: 6.5.0 (97a52f5)
C            0.89633807813167       -0.99555575521880        1.79770547290703
C            0.71990221736064       -0.11408706203388        0.74870114842785
C           -0.53640232364079        0.37068027031358        0.46181669728006
C           -1.63740920034610       -0.01611932687495        1.21652740823257
N           -2.91638901129445        0.51613116767273        0.88976189595354
N           -3.11128702415379        1.34604790179682       -0.13486686696259
C           -4.39150361242076        1.66560603673639       -0.23071615350061
C           -4.96102083395338        2.33660459906837       -1.37839454879090
C           -4.48650634173003        2.02230003353534       -2.69601862423990
C           -3.40375115249864        1.14536242793361       -2.91173638639806
C           -2.98874339209009        0.81134652224688       -4.16674291643574
C           -3.63946726924269        1.33694993167297       -5.28815292394369
C           -4.69428544731843        2.18325643913117       -5.13337318380615
C           -5.15164530661582        2.54823754215875       -3.84120457840467
C           -6.24952023594462        3.39255663227480       -3.67725798834037
C           -6.69970634430174        3.76776672089169       -2.41119098893782
C           -7.78763914796216        4.66529313783423       -2.26205741278806
C           -8.18021625328638        5.08671869948267       -1.02931747216150
C           -7.50008333731491        4.64909177777413        0.11216885540390
C           -6.45927047223403        3.77274110976228        0.00527557592437
C           -6.04495280395895        3.26885010984088       -1.24634150602421
C           -5.19488470089051        0.99314005610051        0.86283873719747
C           -4.16398821572508        0.13816203288007        1.60655111336508
C           -4.13757020806078        0.39151659767948        3.09392586793371
C           -4.67593718386039       -0.56694141786658        3.93971614974399
C           -4.70825582816631       -0.39379143783795        5.30593739960689
C           -4.20562517985877        0.76750299034447        5.88735738474262
C           -4.23008273903616        0.98232351880021        7.30274710407434
C           -3.74627666722153        2.11959481784249        7.84678745368339
C           -3.19098732148790        3.15390773894712        7.02778696026864
C           -2.68822164290497        4.33926696551762        7.56601145207547
C           -2.15988837453625        5.31731150037118        6.74895539438040
C           -2.11681404971144        5.14468237189679        5.38083350543657
C           -2.60685545033516        3.97765686641644        4.79310843631741
C           -2.57342269139891        3.76023526724759        3.38012630195402
C           -3.05068743875111        2.62047363607467        2.83979235243044
C           -3.62028267934795        1.57969587553348        3.64160972156521
C           -3.65964842800133        1.76666059041799        5.04700330685618
C           -3.15066675398614        2.96883930494164        5.62391953794145
C           -1.44526307960191       -0.90488458742099        2.27014219974006
C           -0.18879658718633       -1.38908557060865        2.55709727716695
H            1.87951259263073       -1.37463602414647        2.02415927074795
H            1.56523935017787        0.19492803242242        0.15575564798217
H           -0.68578770456741        1.05990205756897       -0.35030161823568
H           -2.89525452458909        0.73613821872822       -2.06033840033888
H           -2.15622442897829        0.13966038782748       -4.29896758278305
H           -3.30408974667039        1.06600603735281       -6.27596259356748
H           -5.19979480744527        2.58319403407033       -5.99549762423717
H           -6.74906554673657        3.77821563547395       -4.54744067849338
H           -8.29360051519271        5.01994541392877       -3.14360382921984
H           -9.00379721324204        5.77480142122032       -0.92992719640241
H           -7.79472833014007        5.01898249472782        1.08076375677716
H           -5.90223421522300        3.50964864134649        0.88499095656299
H           -6.00839907113439        0.39611164253552        0.43648460154999
H           -5.64035993181002        1.71701833643288        1.54844064563048
H           -4.33083220508690       -0.93049718196780        1.41436064914635
H           -5.08039344534995       -1.46805034188403        3.51094614049850
H           -5.12893131098521       -1.15653186224609        5.93835077638557
H           -4.64556401821434        0.21416787347535        7.93186791707568
H           -3.77263173133013        2.26538178223368        8.91282311512842
H           -2.71769156765919        4.48294491044202        8.63240145131426
H           -1.77640494646536        6.22571007346387        7.18415953701258
H           -1.70148565198855        5.91272743027382        4.75136678516634
H           -2.14826081141654        4.52329136225497        2.75127759684636
H           -2.98683983654783        2.47200926651936        1.77916046456216
H           -2.28627850992351       -1.20257252404667        2.86930845622640
H           -0.05091743724867       -2.07417315125683        3.37769859477581
