69
 energy: -15.223046458791 gnorm: 0.000626156827 xtb: 6.5.0 (97a52f5)
C            0.57150301610051       -0.48976015002776        1.40107073869753
C            0.44678883286593        0.51722557619575        0.46359654539589
C           -0.80314166047857        0.94286043224087        0.07398412031013
C           -1.94896596062134        0.37123650384296        0.61440963130015
N           -3.22075645354494        0.84865340392680        0.19278013367768
N           -3.37416134424895        1.75681871503672       -0.78026356480713
C           -4.64925593569610        2.04134347404159       -0.95022162744408
C           -5.06936530760391        2.95219681479965       -1.97947544222817
C           -4.04233894299357        3.44431755152889       -2.80488668245727
C           -4.27201015074863        4.29296310703895       -3.84864419746273
C           -5.57183355196326        4.71986558811366       -4.14661198107216
C           -5.83236185794892        5.59597065217616       -5.23751456629504
C           -7.08933627384480        6.01072252744538       -5.52236899336778
C           -8.19711304610191        5.58396292722926       -4.73369036706557
C           -9.50313945621667        6.00194875758153       -5.00537202804248
C          -10.55731149201153        5.57761248397832       -4.22367675275145
C          -10.34421452827852        4.73142363210609       -3.15653363635033
C           -9.05610486282858        4.28417334009105       -2.84519968132190
C           -8.79732171434128        3.41553656278761       -1.75002421131233
C           -7.54073013578598        2.99336405489776       -1.46777789798884
C           -6.41082327910239        3.38434247387946       -2.24265953153177
C           -6.64378032149251        4.26527890913312       -3.33727153489002
C           -7.96623804873416        4.71080608654452       -3.63969178492800
C           -5.50036065818624        1.27079967523480        0.02721303742020
C           -4.50075363521237        0.40019778520887        0.79710161846903
C           -4.57769019019883        0.56940361542925        2.29534164113943
C           -5.15873494015826       -0.44166407058016        3.04636997355572
C           -5.27212746661682       -0.35547163718186        4.41652803222370
C           -4.80811998998263        0.76601845243062        5.09924381918603
C           -4.90875454812685        0.88664078613587        6.52244827493613
C           -4.45713886579814        1.98446765742042        7.16601345317549
C           -3.86269027953926        3.07069617442751        6.44816959053871
C           -3.39133789052330        4.21657302507894        7.09039650960526
C           -2.82516703506302        5.24748014002657        6.36929097822266
C           -2.71269810958952        5.16795620167319        4.99662787232894
C           -3.16771675459723        4.04305329389886        4.30743675288556
C           -3.06272308202039        3.92228114778307        2.88665304077151
C           -3.50433926561391        2.82006141665959        2.24739675134584
C           -4.10517148022320        1.72409779654664        2.94648894976518
C           -4.22204221242766        1.81861997962170        4.35703951651794
C           -3.74956549258631        2.98019301688817        5.03902166019391
C           -1.80929484623349       -0.64216415010486        1.55829924048302
C           -0.55882690372018       -1.06760925547157        1.94665624362822
H            1.54955636866065       -0.82334622371711        1.70707989908814
H            1.32713013397122        0.97022237081887        0.03762745895065
H           -0.91411283885728        1.72891070288970       -0.65176336435021
H           -3.03691757401029        3.12197306102035       -2.59764615924342
H           -3.45452207638405        4.63937267792524       -4.45739410926460
H           -5.00439361979639        5.92705770350890       -5.84046468334139
H           -7.26866762003687        6.67333057484161       -6.35137655041428
H           -9.67790948410554        6.66308607624043       -5.83666187609721
H          -11.55697658887742        5.91129841622982       -4.44958072731105
H          -11.17131723072952        4.40604730003971       -2.54937780933421
H           -9.62592978256793        3.09759446806231       -1.14071626199470
H           -7.40625881638765        2.35191167017751       -0.62130862451446
H           -6.25261895315808        0.66534433634035       -0.49036439668123
H           -6.00427963369015        1.95160234833997        0.72024942228330
H           -4.62332879904164       -0.65998516631009        0.53637593581923
H           -5.52986531095363       -1.31540769120219        2.53827621821775
H           -5.72447330890708       -1.15741120911040        4.97410948824871
H           -5.35476773138092        0.07841124710527        7.07582032479580
H           -4.53936398468521        2.05875789539168        8.23657433304033
H           -3.47461628676575        4.28772401418145        8.16122890142235
H           -2.46663869556971        6.12373044614619        6.88441059494181
H           -2.26961921064435        5.97719336208316        4.44212795949555
H           -2.61348226019436        4.72899782820213        2.33355687067384
H           -3.38887282447197        2.74719676740977        1.18342994390643
H           -2.68780997558758       -1.08429659443813        1.99219470586487
H           -0.46128777380909       -1.85172085780771        2.67967886130879
