62
 energy: -13.108723270822 gnorm: 0.000900112455 xtb: 6.5.0 (97a52f5)
C           -0.01049757984320        1.67061271306810        0.62882488001641
C            1.51514135917840        1.56851551106992        0.81219418619438
C            1.91216890374464        2.14092896524777        2.18649057015973
C            1.91156262080081        0.07918080042577        0.77730271093218
C            2.21285651793657        2.37359645163051       -0.29558400765678
C            3.06300426258775        1.76767358373140       -1.23984722614295
C            3.68990564366821        2.48479584298585       -2.22759116869655
C            3.48577454834337        3.86347635458304       -2.30838284861998
O            3.99656548235610        4.80219631834860       -3.19107255401624
C            3.48307776665881        6.03855066511669       -2.82585030963038
N            3.73933828698759        7.21000394244744       -3.41264215466383
C            3.11822005200143        8.25310023036185       -2.85641538220004
O            3.21052155028104        9.57761729304690       -3.25673996105406
C            2.40993532570844       10.32694317530603       -2.40551000295402
C            2.16165090892581       11.70299613046923       -2.37292167048510
C            1.31940882344579       12.20932443760363       -1.41984434098969
C            0.68971972496523       11.37896089683041       -0.47028370748055
N           -0.20118932006314       11.94972542636178        0.51266042018178
C           -1.45253961149521       12.49762702266890        0.12010724571753
C           -1.87504611446244       12.45926413965048       -1.19885041350208
C           -3.09093361105245       12.99742373103043       -1.57319410816401
C           -3.90422688340861       13.58093577271725       -0.62754769225694
C           -3.50597918803666       13.62181745055552        0.69384581015501
C           -2.28829142578438       13.08483962490927        1.09144218424517
O           -1.93204046574360       13.13966671010798        2.43910713450781
C           -0.70036663343432       12.60342817390217        2.81535147489928
C           -0.31988960369252       12.66178258996601        4.14997401454895
C            0.89477173497264       12.15462975625935        4.56614559123859
C            1.75053167697060       11.58170205955293        3.65198805934940
C            1.39082927366728       11.51313455067350        2.31986701332965
C            0.17374268549669       12.00947655454003        1.88243638669444
C            0.93062686101512       10.01556270630360       -0.49112459231409
C            1.79016816359761        9.49385843482093       -1.45468116744526
C            2.24120697690301        8.16459887007140       -1.73420320098865
C            1.97855547458035        6.95176334043039       -1.12878054938540
C            2.62496675976740        5.87223218290846       -1.69880407432148
C            2.63498575425838        4.47855876171131       -1.37298014714441
C            2.00235058679231        3.73561908571956       -0.37632779500282
H           -0.53380081742542        1.09856986705548        1.39413392015587
H           -0.30710762099558        1.28285181197882       -0.34501836710459
H           -0.34801955217888        2.70370856656201        0.69495636887795
H            1.45159924167456        1.57235280396077        2.99331143253041
H            1.59818570098892        3.17808946587641        2.29011984945809
H            2.99240457771469        2.10260995885238        2.32076223944577
H            1.41736017227295       -0.47106056936162        1.57713694377882
H            2.98587771616133       -0.04312189544259        0.90895636195702
H            1.62133031739152       -0.38270144638361       -0.16542669520220
H            3.23249438254774        0.70719444720386       -1.19148652452329
H            4.33753521491540        2.00871030025637       -2.94160632516805
H            2.63872065139275       12.33988438866343       -3.09576494092031
H            1.12346136212696       13.26644264151986       -1.37894831590402
H           -1.24241680154724       11.99955749849221       -1.93657714228427
H           -3.40125205303573       12.96190293566429       -2.60448445588348
H           -4.85228980278753       14.00284576809910       -0.91755837751772
H           -4.13493293737519       14.07042461459712        1.44191985251407
H           -0.99419241090650       13.11533200058557        4.85428139775826
H            1.17345361023196       12.20966570716834        5.60562577175424
H            2.70054908816968       11.18891618828024        3.97463522206960
H            2.06190697196607       11.07179069222398        1.60527605203016
H            0.45515681634143        9.37046672163806        0.22338507701534
H            1.32853608562030        6.85608773027764       -0.27957081251234
H            1.35654279812173        4.23575954511404        0.32083286062596
