61
 energy: -13.225485973527 gnorm: 0.000474425641 xtb: 6.5.0 (97a52f5)
C            0.95342906635378       -0.81105854460301        1.48623335561779
C            0.78257445681123        0.18565590383924        0.54490737936443
C           -0.47392019041893        0.69275206334963        0.30048314604830
C           -1.58037267173524        0.21381893243367        0.99207788839699
N           -2.86018396549322        0.76492228916364        0.71108090766429
N           -3.06377490188478        1.69545959428830       -0.24071112254146
C           -4.33274432722742        2.02191453255462       -0.29876273270386
C           -4.80833173345557        2.98206450611577       -1.26843633135771
C           -3.85465628008402        3.47019431825801       -2.14995075814717
C           -4.15647132880467        4.38153448327566       -3.15159082900593
C           -5.43286447602793        4.83711564809928       -3.30040788010643
C           -6.45818584558323        4.39491970396884       -2.43844113186608
C           -7.77755246558607        4.87549875778611       -2.59817788763321
C           -8.77627209010586        4.46318608795300       -1.77019267890717
C           -8.49987093376326        3.55759540525047       -0.74633335685285
C           -7.23501244176482        3.07443177744889       -0.56821343501155
C           -6.16568894454734        3.46365275477552       -1.40323693043478
C           -5.13030084563591        1.25822451916093        0.72789784622026
C           -4.10085556670163        0.35210042999111        1.41343135127279
C           -4.05661971819720        0.51737959334100        2.91343063934343
C           -4.60392400672667       -0.48087059687941        3.70586139403559
C           -4.62157766924536       -0.38988762160907        5.08028270070630
C           -4.09345193455749        0.72532670515173        5.72577706008309
C           -4.10221978339568        0.85494974734358        7.15168955858478
C           -3.59467326949496        1.94926728087979        7.75853346242334
C           -3.02828503989921        3.02155548568598        6.99836598917165
C           -2.50103423878927        4.16380559692769        7.60242976277189
C           -1.96395603160006        5.18112156546924        6.84094991525446
C           -1.93523421846599        5.09074359335882        5.46465521185211
C           -2.44889239739073        3.96901261350539        4.81251679746414
C           -2.43231615583861        3.83726492816064        3.38907734924692
C           -2.93503599668597        2.74115152487527        2.78554705539290
C           -3.51452932660666        1.66189810369467        3.52718888175224
C           -3.53755296655849        1.76413128070275        4.94183577742978
C           -3.00272692111594        2.92058501987693        5.58563738003697
C           -1.39379642103063       -0.78885401058913        1.93939533721861
C           -0.13708964534713       -1.29586954916235        2.18282031182085
H            1.93653648188331       -1.20910166986037        1.67774985442758
H            1.63222223633364        0.56589387494689        0.00156604772182
H           -0.62028796533417        1.46946966401042       -0.42911890856992
H           -2.84389377913950        3.11573951499999       -2.04816590170438
H           -3.37956066861237        4.72631499700210       -3.81437947246811
H           -5.67095899586922        5.54209062888925       -4.07838103188902
H           -7.98409610194259        5.57699929828396       -3.38833065730367
H           -9.77892729419584        4.83614341467338       -1.90160104659647
H           -9.29438873790183        3.24014409420122       -0.09059207202073
H           -7.06571173309980        2.38827597019597        0.23617087327820
H           -5.93289315397268        0.67899825642714        0.25811165967961
H           -5.56617310574537        1.94127074695714        1.46360739904560
H           -4.27697741738483       -0.70255891474452        1.16124440704588
H           -5.02842679392702       -1.34726476248747        3.22773085558884
H           -5.05012737872905       -1.18203802579741        5.66982285568060
H           -4.52612625791216        0.05755738733374        7.73729151684397
H           -3.60981444021911        2.03143984505152        8.83156675026193
H           -2.51882261181839        4.24312399814896        8.67577045246538
H           -1.56235719669515        6.05557626831615        7.32641645618344
H           -1.51387131765184        5.88907736765511        4.87834110262118
H           -2.00054238803846        4.63048770786390        2.80349377215960
H           -2.88750207170887        2.65983827035714        1.71718077300791
H           -2.23995840702665       -1.15791932417490        2.49005220770062
H           -0.00306967468988       -2.07000303209423        2.92079072220851
