66
 energy: -14.223368454361 gnorm: 0.000610961482 xtb: 6.5.0 (97a52f5)
C            0.05589791836761        1.41662343976451       -3.87410556343954
C            0.65861184051047        1.45772602552386       -2.63105331173213
C           -0.05710784789213        1.12274976149564       -1.50657137240945
C           -1.39969259596615        0.74101544339027       -1.59635927771147
N           -2.12864705774851        0.42444863176133       -0.40735506982718
C           -2.64631388773261       -0.82085072090034       -0.11275391078226
C           -2.77780833095820       -1.82212086806448       -1.10767365070917
C           -3.46474066704736       -2.96482076634207       -0.86569815315814
C           -4.11185690543644       -3.17513033145286        0.38210232582767
C           -4.93718563243841       -4.29318601247601        0.59908924527609
C           -5.61520816699698       -4.44534875594087        1.77679808399401
C           -5.50513942070403       -3.48204464029064        2.77833826341823
C           -4.69879590124552       -2.39318602628316        2.60250018994746
C           -3.94945506924797       -2.22128243502355        1.42012898253406
C           -3.08789814867580       -1.08784454593179        1.20773492009150
C           -2.62339393400785       -0.21962864357828        2.27711512527643
C           -2.29375969749689       -0.67262340829253        3.59152708808253
C           -2.17436691989531       -2.02500439548852        3.96550046303235
C           -1.85309724239669       -2.37318594272173        5.24848882613978
C           -1.61936655537087       -1.38799500806813        6.20912211674919
C           -1.68176163938380       -0.06704272806754        5.86786392338769
C           -1.99713611923795        0.31619910019536        4.54718500844044
C           -1.99393300277716        1.65888340862375        4.13286613653695
N           -2.17133181158423        2.05229551943166        2.90535980125366
N           -2.40949253876684        1.09656043146891        2.01301647765869
B           -2.63904123718042        1.54176720763675        0.55350224630095
C           -4.22436492405888        1.74872112885179        0.40302285283999
C           -4.87265249763523        2.34385498371989        1.45926621143801
C           -6.23435075770184        2.55590341297642        1.41131228994685
C           -6.94923109723459        2.16515901032661        0.29672611004272
C           -6.29956701995105        1.56294676585648       -0.76246198339515
C           -4.93656082542181        1.35686762708884       -0.70506383320106
C           -1.86962440535711        2.91109702299991        0.23057569254403
C           -2.35081628425851        3.74975079653082       -0.74934586302136
C           -1.64739571790027        4.88374706608083       -1.09965320084017
C           -0.45451809190123        5.17583935982502       -0.46935874690529
C            0.03088154858283        4.33271385331595        0.50986874747083
C           -0.67917439851232        3.20113058186096        0.85449605004795
C           -1.98906430747844        0.69813965908749       -2.86475262272479
C           -1.26776117063194        1.03375632255226       -3.98615613829078
H            0.61736008685359        1.68145709189929       -4.75509129901151
H            1.69089968276736        1.75476304133367       -2.54248715420913
H            0.40664657733530        1.14749412795870       -0.53627307129860
H           -2.33337377804846       -1.65590904269059       -2.07209568180857
H           -3.56949236950357       -3.70869365864264       -1.63648517322979
H           -5.04138597317831       -5.02402215656464       -0.18443830146996
H           -6.24933655956081       -5.30375895208504        1.92741191377881
H           -6.06141722345413       -3.59750947201190        3.69425152442329
H           -4.63966924477583       -1.64086473513745        3.36922030914781
H           -2.32280233784187       -2.78927093982975        3.22362138141636
H           -1.77694071846309       -3.41313830750054        5.52100661042924
H           -1.37338843778448       -1.67330506676185        7.21893572200082
H           -1.47695391270636        0.69539784651845        6.59956404829597
H           -1.78442429090924        2.42035608494054        4.86511129972073
H           -4.30181929778453        2.62014831270017        2.32691731322299
H           -6.73806186548655        3.02072218022925        2.24305704760073
H           -8.01419814724571        2.32581985220974        0.25526336831580
H           -6.85575693955713        1.25015098328787       -1.63106462646016
H           -4.42218800737296        0.87315818154638       -1.51331731836614
H           -3.27236522613741        3.50307925701249       -1.24656920925443
H           -2.02670565045374        5.53723434486131       -1.86826610989180
H            0.09882217432265        6.05895153083572       -0.74429670551869
H            0.96291570548467        4.55580080110645        1.00287738086260
H           -0.31384203540423        2.53335035269887        1.61448458840109
H           -3.01784784484194        0.40180394450477       -2.95896844607535
H           -1.73615384541734        1.00067306612886       -4.95635389119532
