66
 energy: -14.369573546458 gnorm: 0.000686916832 xtb: 6.5.0 (97a52f5)
C            1.47838272587483        0.85693728008796       -2.14645446844481
C            1.17057175107672        1.23663281998915       -0.85276013044299
C           -0.12201605327654        1.13884022793654       -0.40265057300747
C           -1.13909019323732        0.66822765279044       -1.23601355627444
N           -2.46381051132435        0.56889502173303       -0.71786504811406
C           -3.13748422301097       -0.63866206441914       -0.47206375058406
C           -3.63005515971479       -1.46648750579870       -1.51225250675516
C           -4.41330144349408       -2.53678626992575       -1.23423520396736
C           -4.79710986783393       -2.83578060223858        0.10237250381604
C           -5.70048919532367       -3.87560094674643        0.38680296388377
C           -6.12523349613812       -4.10467649225368        1.66632641626820
C           -5.67543488205052       -3.29728668478470        2.70992615616119
C           -4.78711724474325       -2.28800923490422        2.46733985929573
C           -4.29245153609143       -2.04737192702564        1.16937879294318
C           -3.35862218379170       -0.99462639830206        0.88256596918452
C           -2.60678670066610       -0.25951575685774        1.88987658344725
C           -2.02142161294296       -0.84562346971385        3.04747150923345
C           -1.98243784572997       -2.22631679167938        3.31747812635886
C           -1.38779857295749       -2.70207473562422        4.45286629623187
C           -0.79123252361088       -1.82232497468400        5.35679384621336
C           -0.77008023383863       -0.48082680123920        5.10130719621300
C           -1.36325054741875        0.04457701519344        3.92495125888541
N           -1.28322304594307        1.38755285270678        3.57933790747620
C           -1.70995043653869        1.86167107091485        2.53020317536879
N           -2.32944559030612        1.05436917112721        1.68481005196976
B           -2.87514318719644        1.61286241857190        0.35392214952519
C           -4.46404648909511        1.74489223360397        0.51123180514236
C           -4.90224042265867        2.09175200085190        1.76675416822003
C           -6.25106096010354        2.22721873943752        2.01684892563175
C           -7.15934722947829        2.01541883297063        0.99837680456760
C           -6.71590427720133        1.67310407064072       -0.26447115278638
C           -5.36384735058461        1.54078331442987       -0.50725092049034
C           -2.32175258021591        3.06340778456712       -0.04055257662242
C           -2.52813830617724        3.58333111975205       -1.29669593226034
C           -2.06670405065022        4.84821542189515       -1.60178107099458
C           -1.40296934064062        5.59094400412536       -0.64424245270536
C           -1.19971662033483        5.06736079940116        0.61697068566043
C           -1.66433948024066        3.80370365038888        0.90730690447913
C           -0.81059156639805        0.27525591910509       -2.53482168005356
C            0.48638674255863        0.37475370095324       -2.98237579035975
H            2.49280044695220        0.93307979149652       -2.50255539500784
H            1.94327449289249        1.60564202690130       -0.19831765240049
H           -0.38646189764277        1.40911227373270        0.60524835919074
H           -3.40098462664404       -1.20933131625562       -2.53060716332265
H           -4.79531756148781       -3.15027907639295       -2.03180909110311
H           -6.06817466169557       -4.48238341372537       -0.42283240819976
H           -6.82262386432269       -4.90116387003292        1.86860599321472
H           -6.03385985518306       -3.46987677307768        3.71163167040738
H           -4.46702004024064       -1.65021407981348        3.27234914808755
H           -2.41008001585111       -2.91218929283078        2.60829163698406
H           -1.37499916315655       -3.76148980513959        4.65068582658787
H           -0.33087791880609       -2.20770616453959        6.25187376381741
H           -0.28602617752136        0.19351295807362        5.78658249051638
H           -0.80383493418067        1.99578299084135        4.23861272817145
H           -4.16976776217678        2.23938247511992        2.54058139552631
H           -6.59352811572403        2.49346492581333        3.00339891245372
H           -8.21516276708541        2.11709609658026        1.18925492847225
H           -7.42442096987090        1.50665473604309       -1.05931370760270
H           -5.00125104333240        1.26617310667126       -1.48226988743721
H           -3.04571892554349        2.99180975406424       -2.03157466545812
H           -2.22654026481287        5.25603295914894       -2.58649657828681
H           -1.04252050831312        6.57839631302189       -0.88236169876259
H           -0.67859260102558        5.63938619859869        1.36695364116345
H           -1.51362974835422        3.33966628125469        1.86785522845492
H           -1.58596561683138       -0.08745753365385       -3.18522212823143
H            0.73115784141194        0.07692197109085       -3.98891858957296
