54
 energy: -11.758734895114 gnorm: 0.000272722371 xtb: 6.5.0 (97a52f5)
C           -0.49952437306197       -1.24915850583481       -4.79246989825048
C           -1.13646218583613       -0.06121323418052       -4.49985334764074
C           -1.93298600605563        0.04032980183092       -3.38064415466067
C           -2.13641657947411       -1.04634050521555       -2.53051799267957
N           -2.93677499646830       -0.93354673655931       -1.32982758311853
C           -3.06971352602737       -2.04019120344891       -0.43277690239894
C           -3.41680854569686       -3.31942641897752       -0.89201972213653
C           -3.58295646076665       -4.36326051410655       -0.01956924830877
C           -3.43186916860013       -4.16355385967518        1.34761778650281
C           -3.12281452975551       -2.91684589492749        1.82645460290191
C           -2.93532943132571       -1.85452373641640        0.95283197750909
B           -2.70085633486466       -0.39536610457384        1.39880225051494
C           -2.32277638064597        0.04342857509315        2.82218581956338
C           -1.57379352134668       -0.76480892903142        3.66722809628617
C           -1.26657150023240       -0.34726763064157        4.93608385370659
C           -1.69841163365943        0.89753126169556        5.37790643914132
C           -2.41549012534434        1.71423789607977        4.54279978013650
C           -2.73839581404976        1.31676359847962        3.23850247698817
N           -3.42129723934645        2.19776648879582        2.36999188364297
C           -3.86281404144825        3.47885775824486        2.88117703343182
C           -4.96751923297937        3.56180381451249        3.72463593686148
C           -5.38168234677360        4.77901295240030        4.21697502689035
C           -4.70182037175224        5.93207531147866        3.87482471518470
C           -3.60435975295200        5.86425511638684        3.03827546817927
C           -3.18602817499594        4.64857765155030        2.54568257140558
C           -3.64513823592722        1.90000656975194        1.01239861358222
C           -4.28918396398200        2.78822074855190        0.15289730870954
C           -4.52195074917593        2.45368098174716       -1.16602862143155
C           -4.09950254992742        1.24150854388393       -1.67349198616891
C           -3.41722978823495        0.32992447112777       -0.86585937322612
C           -3.24152776671974        0.66709407743973        0.48586993138341
C           -1.44706467073411       -2.22222667324724       -2.82700797680996
C           -0.64933990867163       -2.32695006770587       -3.94488696335475
H            0.12443295304564       -1.32941500889780       -5.66768688829847
H           -1.00199782369345        0.79267915786900       -5.14402465545813
H           -2.36577196470745        0.99227336079185       -3.14013090677212
H           -3.59654257129907       -3.46237149892776       -1.94344528194974
H           -3.84879429966173       -5.33915118558014       -0.39176885239899
H           -3.57765522569779       -4.98444861504098        2.03065559592291
H           -3.06105135656394       -2.74583392815897        2.88617153196739
H           -1.21223419301256       -1.71119762118725        3.30550005695791
H           -0.68741195033679       -0.97968581847690        5.58897856443746
H           -1.45816652469418        1.22465953733936        6.37633450096415
H           -2.72874147679040        2.68517315135508        4.88238420171540
H           -5.49036186927064        2.65786774734040        3.98444238844283
H           -6.23739050451718        4.83222034328191        4.87017960759342
H           -5.02760004064812        6.88434948724939        4.26052465510889
H           -3.07433960600367        6.76401108900350        2.77139007537974
H           -2.33009679731757        4.58461341411597        1.89656916496516
H           -4.62503176839914        3.73531365602409        0.53505475290532
H           -5.04614644866308        3.14476397691210       -1.80573583401373
H           -4.34513595104894        0.96613681332318       -2.68422027223827
H           -1.50292243876521       -3.05311490657769       -2.14865776221283
H           -0.13347023516539       -3.25014875627708       -4.15370244534274
