53
 energy: -11.589462349757 gnorm: 0.000427696547 xtb: 6.5.0 (97a52f5)
C           -0.40108123121034        3.98776724224821       -2.07429234052114
C           -1.36921711519286        4.04459376952023       -1.08980826537969
C           -1.75213312377157        2.89826990089597       -0.43003293336400
C           -1.17398610646197        1.67155264222530       -0.74991932589464
N           -1.56738269416241        0.45910882485005       -0.06690772779573
C           -2.79691161986712       -0.19102026319664       -0.38739462726036
C           -3.79372438207218        0.47759111323876       -1.09405273613303
C           -4.98746589307191       -0.13847953156012       -1.39070057970175
C           -5.20516028679095       -1.44156693394052       -0.99350308475659
C           -4.22046762602179       -2.12329253303724       -0.30751899597178
C           -3.01642905470854       -1.51694076471644        0.00588840486614
C           -1.89332283068390       -2.31451911133710        0.66739967771357
C           -2.44517125865368       -3.38782152886683        1.61611702360716
C           -3.19605367651974       -3.25606137045887        2.76583511564086
C           -3.57527829334073       -4.39573524759594        3.45168344329006
C           -3.20940288430438       -5.65194938789531        2.99386830627116
C           -2.45826761130632       -5.79209371210326        1.84397157351761
C           -2.07437646228126       -4.65220496397532        1.15222387205766
C           -1.28692720944880       -4.50669505268697       -0.08129884310049
C           -0.69887147550131       -5.46143316475492       -0.89922148032524
C           -0.00277348477884       -5.04421105960642       -2.01705637062459
C            0.10875913682196       -3.69602950322670       -2.32108805776966
C           -0.47470704409370       -2.74156582730965       -1.50922185739262
C           -1.16926113128743       -3.15150233093056       -0.39096384107308
C           -0.88763401418583       -1.40629406604523        1.37250730501986
C           -0.06284339612570       -1.90261063895211        2.36686250102925
C            0.90385420521554       -1.11002688712939        2.95226717235882
C            1.06456979716943        0.19602661481093        2.53720504386316
C            0.25910432994123        0.70326996237772        1.54385785733803
C           -0.72552212510976       -0.08214913936023        0.94952812086860
C           -0.19322471879043        1.63091462799630       -1.73850499501877
C            0.18697296027875        2.77934097568847       -2.39547439236024
H           -0.10394466489765        4.88593604330567       -2.59075746944516
H           -1.82541884027430        4.98812213942336       -0.83810319847564
H           -2.49951056476929        2.93432756228532        0.34339181195432
H           -3.62074683778574        1.49120146916702       -1.40743707296293
H           -5.75047548697438        0.39515243209210       -1.93374728171676
H           -6.13744508057214       -1.92932963598066       -1.22711366709368
H           -4.37750345253293       -3.14868063328648       -0.02106691582003
H           -3.47512291916712       -2.27621477383754        3.11210572187369
H           -4.16134926165629       -4.30539812276084        4.35163348530818
H           -3.51434325193760       -6.52926879903420        3.54069345801925
H           -2.17041750701766       -6.76287517677937        1.48036930287041
H           -0.79005832490571       -6.50554989376106       -0.65662162598102
H            0.45938816673620       -5.77544261621784       -2.65995038052444
H            0.65513811379371       -3.38838561690512       -3.19767760677991
H           -0.39942381969452       -1.69181919081914       -1.72980035870386
H           -0.17640141494584       -2.92740989575156        2.67517594214038
H            1.53606050899879       -1.51245598463835        3.72685543446728
H            1.82103921433826        0.81677743029415        2.98911326964343
H            0.37870799129039        1.72135263400419        1.21810116766857
H            0.26073983702641        0.68583649229920       -1.97974074464274
H            0.94336391529644        2.73521148174181       -3.16210823477906
