54
 energy: -11.830266935307 gnorm: 0.000683940149 xtb: 6.5.0 (97a52f5)
C           -0.79739084852214        0.23176106036610       -4.43476204986483
C           -1.32785018635234        1.28166249082406       -3.70965406653337
C           -1.61342343175378        1.12273385968895       -2.37286573100772
C           -1.37236007028829       -0.09418687019765       -1.73707705085586
N           -1.65400910189276       -0.26074549820671       -0.32526944172617
C           -3.00158648863935       -0.53012261732074        0.06602656705867
C           -3.99343460061727       -0.59269359420732       -0.91171779862194
C           -5.30793889621348       -0.85298782992335       -0.59175249972571
C           -5.66540927832459       -1.05961406555059        0.72273664114334
C           -4.69846017170171       -1.00618150576153        1.70800111132578
C           -3.37518873223437       -0.74750151984740        1.39798852832142
S           -2.24927535969897       -0.72195112870670        2.75654959705146
C           -0.71698018728080       -0.34651914556963        1.96846542646794
C            0.37744619751383       -0.24205186706494        2.79910695759413
C            1.65194888978275        0.06408836003928        2.31228105262771
C            2.81947558722403        0.15496298188413        3.21537027060877
C            3.97608921370091       -0.52608280707971        2.90208376152894
C            5.08949966081735       -0.49448862843006        3.74042076587880
C            5.06437270113203        0.21966013549863        4.90115433165363
C            3.92368176040048        0.95904300425857        5.28650060334022
N            3.96772533109985        1.65734819731731        6.43673833427694
C            2.88348183808575        2.38129368538749        6.76930184466196
C            2.89260735552477        3.13431525516497        7.96821600533142
C            1.82036737778544        3.88614362363523        8.34111896159906
C            0.67104077087703        3.93454271249094        7.53932029369457
C            0.61577725414503        3.22940858542193        6.37771282990036
C            1.71434499314972        2.43633921273971        5.96061487053076
C            1.68881419964023        1.70380748238338        4.78222479732372
C            2.78426058030236        0.93622464000768        4.42581726461886
C            1.79094762983881        0.24999179064451        0.93723622110388
C            0.70558110372364        0.14372486909932        0.10273966642518
C           -0.56863902764209       -0.15779657019492        0.58778505809344
C           -0.83887455373097       -1.14485143561906       -2.48209198767165
C           -0.55392354713451       -0.98059876041799       -3.81827875374903
H           -0.57209964463929        0.35933012713585       -5.48086962188236
H           -1.51631112490116        2.22714170509862       -4.19135304849401
H           -2.02218190000201        1.93521518142668       -1.79792785015670
H           -3.71995518240151       -0.43544770496595       -1.93946746021321
H           -6.05478837132630       -0.89549482870759       -1.36760859515796
H           -6.69164599328483       -1.26349930945840        0.98081407393797
H           -4.96636930874907       -1.16942649810653        2.73919445376122
H            0.24651876309783       -0.41946959818886        3.85263647851498
H            4.00575962332426       -1.11186879129535        1.99958233767337
H            5.97507588804443       -1.04511909956443        3.46817235781227
H            5.92458301303049        0.23971232389150        5.54686712400858
H            3.77455245444930        3.09938219160664        8.58313757900378
H            1.85218706146189        4.45062718467801        9.25863582489188
H           -0.16988653280361        4.53316626134465        7.84858693088299
H           -0.26556005786436        3.26369522217981        5.76089497934671
H            0.82473065602168        1.75221792091706        4.14679791474284
H            2.76166542992964        0.48676534237660        0.53726829623573
H            0.83445917965612        0.29595002168661       -0.95369408854182
H           -0.65086662376093       -2.08383466034746       -1.99132794716467
H           -0.13804529199999       -1.79816109444411       -4.38414212156896
