29
 energy: -6.197945744561 gnorm: 0.000803952531 xtb: 6.5.0 (97a52f5)
C            0.61504701709106       -0.29203890040595        0.06571944316718
C            0.21417325351256        1.02048533609090       -0.09206631858063
C           -1.09901986466554        1.31160808906705       -0.38413238772782
C           -2.04469229953766        0.29368362830460       -0.51320875649064
N           -3.38220733790784        0.61670737767194       -0.84213303069448
C           -4.57438979315819       -0.09993014267342       -0.62458485698636
C           -4.62367176268487       -1.09707896635358        0.36828427861605
C           -5.76852867968820       -1.78380410744843        0.59185253305094
C           -6.90023621596957       -1.47407045995162       -0.18067610313204
C           -8.13291535270590       -2.14041646988557       -0.01794756784393
C           -9.21047251207714       -1.80271794249209       -0.78252626246138
C           -9.10350355204940       -0.78836825275607       -1.73797261046440
C           -7.92383642520204       -0.12668207152086       -1.91492719137174
C           -6.78295669876686       -0.44362818489405       -1.14541279377473
N           -5.62923094778166        0.24147622549083       -1.35324204883981
C           -1.61799909634168       -1.02657119184745       -0.36809559507768
C           -0.30339766533271       -1.31397360299198       -0.07820173677111
H            1.64395759811301       -0.51886028223395        0.29254510983023
H            0.93175753028892        1.81796637814455        0.01221822306600
H           -1.41396460182777        2.33319075894542       -0.50680296850486
H           -3.51964432605407        1.46932414324063       -1.37647905576035
H           -3.75524646809054       -1.27893636496733        0.97539125590688
H           -5.82479034722083       -2.54745359329208        1.34836033908464
H           -8.21167985120030       -2.92026346140031        0.71981214129560
H          -10.14835607797547       -2.31709227727429       -0.65112489691600
H           -9.96081214009947       -0.52902211487147       -2.33742506500924
H           -7.84092789319210        0.65374707938786       -2.65077039517938
H           -2.31984738559682       -1.82551437173382       -0.52816549722791
H            0.01219189612141       -2.33898625734957        0.02914181479678
