59
 energy: -13.069773796382 gnorm: 0.000472856647 xtb: 6.5.0 (97a52f5)
C            0.97432310224922        0.79023245652424        0.91623867150023
C            0.47621278487072        1.83261245937321        0.15814057383208
C           -0.74127583909973        1.71072301920106       -0.47265301979121
C           -1.49055551706743        0.54010488917520       -0.35290515743591
N           -2.71507111509443        0.41528880727484       -1.03183482802586
C           -3.65562194059641       -0.63299732186149       -0.97071257506181
N           -3.57370372387414       -1.51021045878682        0.01488200836780
C           -4.48059686679772       -2.47169594089481       -0.01935814396424
N           -4.47458185112284       -3.44836716375850        0.99717508009019
C           -3.80870252049213       -3.42996764755279        2.23508461899228
C           -3.84708493151101       -4.54979804596908        3.06618993223984
C           -3.23026858911983       -4.53278101735626        4.29675714486690
C           -2.56739762432098       -3.39924905959157        4.72683419310215
C           -2.52333624109424       -2.27983280604605        3.91896104531738
C           -3.13624963243155       -2.29775692773811        2.68835512981229
N           -5.40679399378492       -2.61429913949135       -0.95502829741100
C           -5.41504368018685       -1.66085190651531       -1.87464207896616
N           -6.40714471015793       -1.77765058957162       -2.86771827032649
C           -6.70392117232203       -0.91546762756602       -3.93570843151033
C           -7.70039339013557       -1.26396534585343       -4.84732470196939
C           -8.03797099161517       -0.43069216141805       -5.91183929012551
C           -9.05050075242326       -0.77334749098155       -6.85999986457029
C           -9.36275208547786        0.05553315050507       -7.88420473740480
C           -8.69411576785106        1.30600518082735       -8.05658228021784
C           -8.99868500497252        2.18174428253833       -9.10249526925228
C           -8.33222816093321        3.38287348995913       -9.23400747466068
C           -7.34889465397205        3.74806606752808       -8.33739439389278
C           -7.00301966566563        2.90902127900738       -7.27440315373611
C           -5.98848796144877        3.24962573115906       -6.32797340377755
C           -5.67056856424933        2.41688785712145       -5.30874508723174
C           -6.34071514746442        1.16729966852698       -5.13969863082414
C           -6.03624317163799        0.29456623137835       -4.10090013096126
C           -7.35407537007781        0.80229545829439       -6.06023488271495
C           -7.68446980878547        1.67431251305574       -7.13281905796089
N           -4.57288728743374       -0.64226305837143       -1.92498219316567
C           -0.96912144828062       -0.49903272657361        0.41372031574140
C            0.24828383354273       -0.37807339378966        1.04109978108079
H            1.92850317404088        0.88763175159733        1.40768848767837
H            1.04411229059082        2.74313458029112        0.05875982215753
H           -1.12875069376655        2.52049153555149       -1.06572819942285
H           -2.92000513647705        1.11524608450395       -1.73806450692307
H           -5.11343012216395       -4.21926240574294        0.83191723771439
H           -4.36595270899324       -5.43101176575005        2.73184091833498
H           -3.26648976234012       -5.40551737032300        4.92805357857486
H           -2.08758030834215       -3.38778031989048        5.69177548438164
H           -2.00900248339844       -1.39351363103521        4.25259482968626
H           -3.11363113056335       -1.42868593273701        2.06019757979936
H           -6.98114455809774       -2.60979583412481       -2.77865933812944
H           -8.21806551468296       -2.19735799496082       -4.72648115120643
H           -9.56566378880206       -1.71129722495833       -6.74583284071838
H          -10.12770778276302       -0.21981504275745       -8.58920057136973
H           -9.76337905085607        1.90731584601771       -9.80827356337307
H           -8.58321930241743        4.04430785558148      -10.04697345729208
H           -6.83643799517240        4.68772156453945       -8.44967050092304
H           -5.47499734196324        4.18863955534333       -6.44012130729581
H           -4.90339243620212        2.68954777472348       -4.60520101676288
H           -5.26564745469479        0.56110728420965       -3.40674990494309
H           -1.53313547351576       -1.40739279166924        0.49786609662849
H            0.63541704141206       -1.19371623018636        1.62956918341261
