65
 energy: -14.459533151778 gnorm: 0.000748305634 xtb: 6.5.0 (97a52f5)
C            1.83949953383767       -0.60165951230024        1.29107755988456
C            1.65900558733301        0.47872773804474        0.44866341987738
C            0.47120743046879        0.63806147156528       -0.22842916352372
C           -0.56660785008450       -0.28085586051348       -0.07074193159599
N           -1.76413225996420       -0.11854170619789       -0.78775788574730
C           -2.97368033971736       -0.83154849236771       -0.67272948229123
N           -3.15324510349197       -1.63327203813339        0.36362004640835
C           -4.31847357804119       -2.25930747590402        0.38842532406507
N           -4.60451046782784       -3.12563931345634        1.46219075272683
C           -3.92524903272657       -3.27692615691188        2.68334360644312
C           -4.28431631290247       -4.30093189103071        3.56022176305377
C           -3.64466679262925       -4.44578180144273        4.77045311267223
C           -2.63899866018359       -3.57084461875289        5.13455048245592
C           -2.27582531008609       -2.54674777084839        4.28183267544960
C           -2.91245767898721       -2.40369290857485        3.07164965238394
N           -5.25894760055868       -2.16031112297688       -0.53883082959262
C           -4.96692967338646       -1.33702160992915       -1.53330802229172
N           -5.95711615210821       -1.19393780980801       -2.53132118837777
C           -5.88991070626203       -0.59231648902617       -3.79583341679189
C           -7.00810443671225        0.07761755784636       -4.27829365752878
C           -6.99201152481863        0.73279152231569       -5.48762151911720
C           -5.86062392039839        0.74757170156246       -6.30387488499934
C           -5.83508655293139        1.46392715589384       -7.56880842531557
C           -6.91935915770033        2.21047436457294       -8.02084958259633
C           -6.88231073340042        2.89492605029880       -9.22681705355474
C           -5.76521050622948        2.85572951606202      -10.01306755032230
C           -4.63349613679289        2.12008820817366       -9.61067291945956
C           -3.47359560180665        2.07272830922602      -10.40830682562536
C           -2.38287607441045        1.35689362137647      -10.00294260156372
C           -2.40174155351405        0.66473797643593       -8.80028987597680
C           -3.51731230252331        0.67106987279440       -7.97039000758094
C           -3.54836956298197       -0.05289052995475       -6.70486504080238
C           -2.47759623845482       -0.83063721670702       -6.27887388610271
C           -2.52036514845383       -1.52667705764500       -5.08393651150431
C           -3.62311299613811       -1.44864617484171       -4.27897056526448
C           -4.72826362426409       -0.66354078040276       -4.63298647078353
C           -4.71019115667989        0.02047498811410       -5.88015626753714
C           -4.66165066751083        1.41514532390433       -8.37776821233030
N           -3.85811437547831       -0.62266292517370       -1.63555141080503
C           -0.36250497330932       -1.36488662309030        0.77896940289117
C            0.82547363694816       -1.52566560075829        1.45227271579449
H            2.77053881239259       -0.72406237964777        1.81984913265774
H            2.45099791498511        1.19840805826493        0.32096187408506
H            0.32940288899019        1.47894431198728       -0.88453793523992
H           -1.75754322042850        0.56082201549987       -1.54208204644216
H           -5.45920668754250       -3.66008722918062        1.34414658251131
H           -5.06813681721136       -4.98106402661476        3.27633082147039
H           -3.92986663125922       -5.24311007496207        5.43711242229655
H           -2.13998182869180       -3.68628255212278        6.08275089559258
H           -1.49408781620013       -1.86083182072175        4.56430866449913
H           -2.64382539622217       -1.60371083433552        2.40975781903002
H           -6.88066347436849       -1.47345365700287       -2.21078819668200
H           -7.89264595482846        0.10641838319679       -3.66619163992622
H           -7.88112874762025        1.24854524187810       -5.79969014500982
H           -7.81279820330795        2.27154810234453       -7.42759789073739
H           -7.74124559691923        3.46320831587186       -9.54453467091093
H           -5.73880091644430        3.38877532280050      -10.94774822258163
H           -3.45677605535390        2.60873700969813      -11.34153571584011
H           -1.50025554121719        1.32873289561205      -10.62085520168627
H           -1.52298260557579        0.11777016067141       -8.51303425623224
H           -1.59664106832566       -0.91319602900313       -6.88793630329703
H           -1.67935849680417       -2.13095439723498       -4.78469052295713
H           -3.65081151701649       -1.99862224860669       -3.35655326949814
H           -1.14999638540222       -2.08467234398004        0.88958774416603
H            0.96497191936607       -2.37127411592428        2.10561473560342
