59
 energy: -13.068113291943 gnorm: 0.000692552446 xtb: 6.5.0 (97a52f5)
C            1.02509518769670        1.30803149473729        1.36056089974846
C            0.54096267270988        2.38425598246911        0.64172379167755
C           -0.58853408171992        2.24818261652021       -0.13347973340790
C           -1.26305069164226        1.02885371648322       -0.20016287965052
N           -2.39982614736975        0.89594632505484       -1.01622498881187
C           -3.29440416333182       -0.18910240550722       -1.11720631545782
N           -3.25790151231390       -1.13692076229139       -0.19623017726320
C           -4.13204185795141       -2.11385276270082       -0.36873662272176
N           -4.19186124013380       -3.15136040287747        0.58432100681665
C           -3.61841032078311       -3.21202170713691        1.86641661859192
C           -3.70224052405827       -4.38648679199133        2.61454646019888
C           -3.16990551805902       -4.45112623789736        3.88246656631193
C           -2.54838640060382       -3.34673475105433        4.43304656871697
C           -2.46227524858950       -2.17362177394488        3.70913838546338
C           -2.99117202497703       -2.10968911757439        2.44159579480176
N           -4.96984735277161       -2.21665019994526       -1.38866512379756
C           -4.91647006537272       -1.21265627120028       -2.25019865871474
N           -5.83134194015250       -1.27739314954944       -3.32631224629043
C           -5.95898086019711       -0.49694463354537       -4.48549805803471
C           -7.24854098709147       -0.26007220631857       -4.98315182651256
C           -7.46927146034270        0.51851439240945       -6.08686283635075
C           -6.40018394482284        1.09969921202380       -6.78327532040712
C           -6.60270708100517        1.92398484611812       -7.92487719859809
C           -5.55630003527127        2.45966591779574       -8.60104174497311
C           -4.21325350699173        2.20736163097297       -8.19791028193547
C           -3.11569630266289        2.73536309511398       -8.88608229119072
C           -1.82712682322358        2.46094441181332       -8.47733707092263
C           -1.59142367622792        1.65650451607604       -7.38240548357724
C           -2.65396633876696        1.10455845560847       -6.65798065743804
C           -2.45184847190220        0.25674251527476       -5.53335000267212
C           -3.50244443760248       -0.25434687726066       -4.84464661773245
C           -4.84663123700354        0.03563419265525       -5.19693850373096
C           -5.07924499003400        0.84249967819626       -6.34007145770389
C           -3.98061440568538        1.38801886003104       -7.06457451593650
N           -4.12813141613761       -0.15611621353675       -2.14493045210251
C           -0.75585655046855       -0.04407666743822        0.52838739851345
C            0.37427584048726        0.09125342601024        1.29982264162033
H            1.90977784184374        1.41718175822438        1.96630520508213
H            1.05035402938766        3.33299998124258        0.68719779692484
H           -0.96561367250815        3.08499486653343       -0.69480000286994
H           -2.57937127436066        1.64183997828676       -1.68081230885373
H           -4.80520329120542       -3.91586785186366        0.32149990887277
H           -4.18821807245490       -5.24542137128029        2.18595278287860
H           -3.23922130909328       -5.36574421885587        4.44821851894036
H           -2.13397075223107       -3.39959071190572        5.42659954658866
H           -1.98118828123410       -1.30945693804184        4.13724069829229
H           -2.93781439831364       -1.19863805997119        1.87842816870499
H           -6.59124960838087       -1.92902716890540       -3.14511824504804
H           -8.08450189457173       -0.68521130805269       -4.45586215592689
H           -8.47349694378672        0.69694927338470       -6.43094332971547
H           -7.61076691706237        2.11806384616293       -8.24745817230415
H           -5.72866549123920        3.08202249847426       -9.46194786971838
H           -3.28896440572088        3.35987401041726       -9.74525454453767
H           -0.99554259130488        2.87736345162006       -9.02168247054358
H           -0.58234929177749        1.44392319454893       -7.07429899410949
H           -1.44400387223217        0.02511596710024       -5.23560038443133
H           -3.32308788060372       -0.90019996876035       -4.00541555519298
H           -1.25985593375981       -0.98916584941775        0.46775206861212
H            0.75086192497564       -0.75078773252103        1.85710427181932
