38
 energy: -8.237842695675 gnorm: 0.000496894184 xtb: 6.5.0 (97a52f5)
C           -1.70488699495697        0.71642657930288       -2.15475202479007
C           -2.86207020221085        0.61454746227857       -2.90259386646860
C           -3.88127852788973       -0.21466236831189       -2.49190386643539
C           -3.76582467487797       -0.96057722483048       -1.31823960407192
N           -4.81566681756594       -1.81075807758678       -0.92432713287927
C           -4.92627265295090       -2.57613574199609        0.24409866960390
N           -3.99576496449057       -2.49326538021719        1.17888451799440
C           -4.19228980033349       -3.22869869350416        2.26599431821999
N           -5.16541661754309       -4.03671165068835        2.57902775757867
C           -6.12526061285204       -4.14706417101998        1.63843796704824
C           -7.22963510888883       -4.99798420441239        1.85366500953679
C           -8.20686493083108       -5.13575509086343        0.91476092985067
C           -8.14395534604823       -4.43261204980157       -0.30514850238226
C           -9.19859291852089       -4.59083244722934       -1.32954441169446
C          -10.53934134867345       -4.71738181874544       -0.96657911476399
C          -11.51913639577670       -4.86497669450865       -1.92364876071857
C          -11.18261998621097       -4.88920381134256       -3.26215333424349
C           -9.86117760207521       -4.76560084818087       -3.64137693991713
C           -8.87889108752022       -4.61743997724609       -2.68705046289554
C           -7.07036510520855       -3.59565202397530       -0.52542590640661
C           -6.05114418122891       -3.42971770685700        0.42778423951211
C           -2.59208311785677       -0.84051896757701       -0.57869384822547
C           -1.57230286499607       -0.01471347885890       -0.99043068720709
H           -0.90793541511596        1.36557385627237       -2.47828877712885
H           -2.96739462305309        1.18681998735415       -3.80977605261967
H           -4.78184395934848       -0.29406376430681       -3.07531231427843
H           -5.60033568725344       -1.83278621427313       -1.56365848994885
H           -3.41668199208261       -3.14016182552008        3.01450779155199
H           -7.27951316346159       -5.54419469005209        2.77901305614405
H           -9.03239322998951       -5.80324066894507        1.09028317965507
H          -10.80613221348140       -4.68354819481768        0.07543541935025
H          -12.55091844848076       -4.95962751482249       -1.62696734399163
H          -11.95013091097500       -5.00454130905840       -4.00996046287922
H           -9.59748967345844       -4.78707035914275       -4.68615911961143
H           -7.84795015409645       -4.53855175617858       -2.98560442151330
H           -7.02747191417152       -3.06119576290108       -1.45369999915280
H           -2.49504729711067       -1.40599533601595        0.32721990726388
H           -0.67085945841650        0.06282193858823       -0.40488731909204
