56
 energy: -11.556307885822 gnorm: 0.000838128864 xtb: 6.5.0 (97a52f5)
C            0.19359471651277       -1.89513777131863        2.30682770839280
C            0.17426882531335       -0.51866246021961        2.40816445199084
C           -0.88941545222438        0.19340295180624        1.89382746829220
C           -1.92943570252380       -0.46782251721155        1.28236873595552
B           -3.19850692572102        0.28087520563730        0.60669898242306
C           -3.23181440186247        1.80500725497045        0.96545008671819
C           -3.41486465581370        3.15530252230580        0.84731316936278
C           -3.76470909845378        3.80348847095852       -0.29081286672358
C           -3.96039721276643        3.14731289074333       -1.54538333801975
C           -4.35024533761994        3.76215187380926       -2.68699978544310
C           -4.62575465422807        5.09695646981928       -2.81182084263092
O           -4.43309758907444       -0.40103189189133        1.11250440624097
C           -5.48256891194981       -0.63832633215581        0.34051964449189
C           -6.68189892650738       -1.09581373112981        0.97285447517916
C           -7.81091833957178       -1.29598039104955        0.27397313774995
C           -7.86012904926549       -1.04543133346548       -1.13382929518178
C           -9.05976882175237       -1.20485954493621       -1.83334188521511
C           -9.13395120809790       -0.94548702411528       -3.17796249207014
C           -8.00584984618636       -0.51542382855812       -3.85990547973118
C           -6.81768460160433       -0.35806727311911       -3.19963589070633
C           -6.68856759856896       -0.62293095855677       -1.82130001270558
C           -5.45568842494399       -0.46146648476104       -1.09310609748820
C           -4.19417617555796       -0.18131472700056       -1.70068346789122
C           -3.96458949661301       -0.16954438226540       -3.04962838427026
C           -0.80873596184719        2.44676690119702       -4.68448158705583
C           -0.79533836350432        1.60204912504224       -5.70379016843523
C           -1.71251118813200        0.55804583444352       -5.95425593291763
C           -2.69096395996382        0.05017637431545       -5.11596788282939
C           -2.78745090797996        0.11849372461594       -3.69343144394195
C           -1.69008697981143        0.37633127538597       -2.83846160554008
C           -1.87400178407349        0.37388508468928       -1.48596026541779
N           -3.08856332983190        0.11531783667943       -0.92185243680013
C           -1.91006701033751       -1.83767268533305        1.17694071845669
C           -0.84968169658644       -2.55598579801877        1.69015483983025
H            1.02320069535000       -2.45361046578075        2.70868859660368
H            0.98831268979574       -0.00041979001999        2.88805767196794
H           -0.91422057977789        1.26670529675407        1.96369719093734
H           -3.27114656796349        3.74238734550913        1.74416032096000
H           -3.89846078301988        4.87112019496493       -0.26653616674291
H           -3.76186391261934        2.09269507216759       -1.56810819114759
H           -4.45092988218160        3.15407995966604       -3.57656473111107
H           -4.91515394889140        5.91382647786552       -3.37149119973677
H           -6.65498059742221       -1.26409336599900        2.03453826704328
H           -8.70435236437908       -1.63285200650433        0.77062679105389
H           -9.93589984078144       -1.53008285327089       -1.29905252599871
H          -10.06687726677055       -1.06915445319973       -3.70292131028891
H           -8.06818897805595       -0.30280541926510       -4.91485379859875
H           -5.96982864772638       -0.00629198839817       -3.75248371872199
H           -0.41948552865552        3.25943054229819       -4.18125161539291
H           -0.05213160041784        1.78304458654223       -6.47107123091560
H           -1.69682298167594        0.16127662088931       -6.95910925069292
H           -3.48848265936267       -0.50493876281075       -5.58652110467203
H           -0.71344947877721        0.53710961273741       -3.25664882522293
H           -1.05195697317905        0.58763563171898       -0.82744043224226
H           -2.73188663332531       -2.33538420535746        0.69151918247503
H           -0.83638408930217       -3.63051268942066        1.60884941559548
