55
 energy: -11.377068200747 gnorm: 0.000625565660 xtb: 6.5.0 (97a52f5)
C            0.31352022120087       -1.56736702905189        2.35905639593179
C            0.35078898764183       -0.21537024318477        2.08433955172442
C           -0.75702171838268        0.40812752219620        1.54900025465501
C           -1.89808447686342       -0.31537050456302        1.29432161541045
B           -3.20533163569923        0.34900551411950        0.61176730685823
C           -3.31615048167184        1.87350050208100        0.93685900670932
C           -3.51328680816015        3.21702632349202        0.77797345801889
C           -3.75284857694648        3.84285379573222       -0.40035531021390
C           -3.79015993070424        3.17130904716527       -1.66144959172710
C           -4.13455752014828        3.75404090111804       -2.83394865634998
C           -4.50602045535842        5.06173631837726       -2.98918205851642
O           -4.40953297633409       -0.38549946552647        1.11397617892287
C           -5.44340832257530       -0.67219408366669        0.33584396263458
C           -6.62487048729789       -1.17942248091127        0.96161969155261
C           -7.73604704599240       -1.43998659606825        0.25385378788093
C           -7.78162226243582       -1.20701067959191       -1.15634122163754
C           -8.96244965811950       -1.43855039286875       -1.86794165999647
C           -9.03319140029678       -1.20037416293495       -3.21611184983823
C           -7.92090609626538       -0.71926751606296       -3.89043178063962
C           -6.75131330585835       -0.49082398835397       -3.21866150547437
C           -6.62590256925905       -0.73092575985249       -1.83548652492082
C           -5.41208975291495       -0.49913301496782       -1.09645944270112
C           -4.15945178459025       -0.16056871288546       -1.69467335699971
C           -3.91043143980467       -0.12987370671587       -3.03272737657188
C           -0.62309742936184        2.52436250002920       -4.42535877774442
C           -0.55726053409647        1.68899115479271       -5.44657304688863
C           -1.48013908421293        0.66706522434893       -5.77471037964406
C           -2.51171807031107        0.15578938028088       -5.01225410031142
C           -2.70878260047607        0.20497185703434       -3.59744519893438
C           -1.68958695792648        0.47310416101181       -2.66809006356012
N           -1.85669347987925        0.45697561141238       -1.36653516223214
N           -3.07088001112989        0.16536447923164       -0.91232803031528
C           -1.93416777398220       -1.66301501918655        1.55877612706845
C           -0.83026393833324       -2.29302401352931        2.09501443779758
H            1.17768316910092       -2.05663475550472        2.77750076916896
H            1.24453735796495        0.35228625534305        2.28493868620335
H           -0.73860076072481        1.45891736029999        1.31874288121579
H           -3.48553337657712        3.81799777497930        1.67714824336647
H           -3.92363307377978        4.90560217610451       -0.40400014325527
H           -3.51925001548390        2.13233189626462       -1.66311844023932
H           -4.11996106240856        3.13905096770953       -3.72453663163873
H           -4.82271401869160        5.85504298723002       -3.56723982142575
H           -6.60004721284902       -1.33650489676648        2.02515471151164
H           -8.61702868726065       -1.81519884255224        0.74511975048040
H           -9.82626522683884       -1.80433876677486       -1.33992794723188
H           -9.95139257043336       -1.38060772740495       -3.75052498882173
H           -7.98131620839869       -0.52403038101065       -4.94870575167923
H           -5.91556767498521       -0.10313662179195       -3.76592956442854
H           -0.26621854737144        3.32213462185226       -3.87677888839506
H            0.24237639240431        1.85925675039273       -6.15775101631396
H           -1.40685561679293        0.28965696095036       -6.78458293467218
H           -3.27087281752477       -0.40027235842229       -5.54135984788224
H           -0.69602522072572        0.66869302104385       -3.02734469067189
H           -2.83448827242963       -2.21224651513988        1.34458893771781
H           -0.86130717158618       -3.34939683436700        2.30562000389883
