50
 energy: -11.427464268215 gnorm: 0.000882874765 xtb: 6.5.0 (97a52f5)
C            0.88299218138828       -0.05848335668516       -0.07929206205336
C           -0.33774377013861       -0.04593458855966       -0.05231766512543
C           -1.74942550935954       -0.00972770414436       -0.03212769078780
C           -2.41793681703130        1.20949745850386       -0.02446534447535
C           -3.80971534325535        1.27730606448257       -0.01471992296090
C           -4.51616514939189        2.52338374743198       -0.01240604661715
C           -5.86635148221367        2.56309790503203       -0.01233085605735
C           -6.64492761496714        1.36075846675187       -0.01441989981396
C           -8.03833738437927        1.37487721962044       -0.02353264124382
C           -8.77726967020361        0.19699176388760       -0.03034500881593
C          -10.18868373315098        0.24258858166067       -0.05063174485605
C          -11.40824559524063        0.29588726463694       -0.08067909648768
C          -12.81821881660901        0.36970639037031       -0.12728267970777
C          -13.59185497627593       -0.78608944279141       -0.15809833215131
C          -14.96842499609313       -0.71194212275092       -0.20377028008079
C          -15.59467602354281        0.51782781357876       -0.21912008079366
C          -14.84173111011066        1.67406841958330       -0.18941005411437
C          -13.46509756169632        1.60127091280757       -0.14450707101590
C           -8.10979771320031       -1.02296773175226       -0.02404663333263
C           -6.71770632348332       -1.09158891179091       -0.01504881874662
C           -6.01063081627424       -2.33745062022361       -0.01379882773533
C           -4.66026972406093       -2.37718599368480       -0.01416101905542
C           -3.88109139255613       -1.17508795726570       -0.01585084737833
C           -2.48732938369944       -1.18841667035464       -0.02575364740548
C           -4.55157683224736        0.07172673522028       -0.01248829261945
C           -5.97514760440515        0.11365621371752       -0.01225012210734
C            2.29499014416688       -0.05363511064632       -0.12108467224979
C            2.99938816142437        1.14587071220364       -0.14212563868983
C            4.37801921017581        1.15338343668550       -0.18217007208483
C            5.07560621705252       -0.03727116905090       -0.20153933842492
C            4.39188721297339       -1.23599721378549       -0.18177139657039
C            3.01312876864679       -1.24488895615704       -0.14251603143469
H           -1.84580724322128        2.11990944051261       -0.02905976166415
H           -3.94722882766144        3.43701493877865       -0.01289853102303
H           -6.38055211875704        3.50860113709276       -0.01251356460445
H           -8.55610058082208        2.31727566912811       -0.02858106492153
H          -13.09985765769736       -1.74384370692254       -0.14567256765840
H          -15.55527807250098       -1.61575110598794       -0.22796946989191
H          -16.67039173683395        0.57515091604966       -0.25359248665023
H          -15.32982406818417        2.63502839897923       -0.20071893755652
H          -12.87414386312000        2.50122799997165       -0.12395109200673
H           -8.68264161459276       -1.93289485091014       -0.02914525681880
H           -6.57943646049452       -3.25116634773876       -0.01472007716312
H           -4.14622918567573       -3.32277950350329       -0.01507025455051
H           -1.96883072713100       -2.13037274462233       -0.03129270512348
H            2.45154068159172        2.07281248621837       -0.12643220379902
H            4.91054242121138        2.09037446040732       -0.19844719917754
H            6.15295857775172       -0.03086721575817       -0.23108581949387
H            4.93587462300340       -2.16638463455493       -0.19638067528479
H            2.47613930089610       -2.17816689366152       -0.12978649761981
