31
 energy: -5.694927963585 gnorm: 0.000658814644 xtb: 6.5.0 (97a52f5)
C            0.88631365570765       -0.08429591382707       -0.02385906885324
C            2.43155730968635       -0.12919176120758       -0.01748091605268
C            2.82043182704730       -1.48965007949200        0.58783062879364
C            2.95331123887906       -0.10894020804647       -1.46874208388305
C            2.96285940550243        1.13323107648165        0.71939760120386
C            2.51219399130592        2.32051836058495        0.19490290618340
C            2.82946631849716        3.56245231439592        0.73777771582836
C            3.61075886389255        3.64170873935365        1.84422933722027
C            4.12452134563637        2.48052070331868        2.44518435427733
C            4.95403823127954        2.58093640456122        3.61834124951286
O            5.23917504438315        3.77109169802709        4.26023897137163
C            5.50166371684340        1.42797742737919        4.14711180732087
C            5.25975997917851        0.19361884203101        3.56949496935701
C            4.45792603397149        0.08350020615139        2.47096186298534
C            3.83439331769644        1.20503773385068        1.86840940553839
H            0.47361539834341       -0.96025601197722       -0.52333417242686
H            0.50314885785121        0.79252527330869       -0.54217798688114
H            0.49989436742517       -0.06632135806760        0.99462532815208
H            2.29936267405669       -2.29485398493506        0.06950485440634
H            2.53448927757746       -1.55464321678587        1.63750129975974
H            3.88395617598309       -1.69063895582608        0.46416836852671
H            2.59927867402495       -0.97823514610419       -2.02205200007987
H            4.04269201725029       -0.12087268332784       -1.48455334704184
H            2.62220769699058        0.77917169655748       -2.00442038726934
H            1.88264768408982        2.30451972138822       -0.67745094601345
H            2.44777071848542        4.46062339355814        0.27945460083012
H            3.84835065975835        4.61113209759520        2.24197260173706
H            4.75125589000641        4.51653888363828        3.85784017512310
H            6.12596761762649        1.51076708372982        5.01893514726715
H            5.71354445869822       -0.68765648866186        3.99390739426766
H            4.34404755232504       -0.89364584765237        2.05527032883853
