16
 energy: -3.385743778090 gnorm: 0.000935404693 xtb: 6.5.0 (97a52f5)
C            2.16146440104561       -0.69109016765575       -0.01027517259169
C            2.13471432318927        0.71419399873033       -0.01255898855147
C            0.95032802706061        1.40140542486022       -0.01403478313373
C           -0.24829147359166        0.67432566427180       -0.01165920581488
N           -1.57783964970593        1.07010884731057       -0.01671570483921
C           -2.36730377988395       -0.05740128039566       -0.01677785891828
C           -1.57560884476437       -1.17378890910330       -0.00904688769931
C           -0.22469525300348       -0.73628874931282       -0.00566596496651
C            1.00385700404808       -1.42151579463113       -0.00773397634328
H            3.11162087740591       -1.19958800983233       -0.01087613741932
H            3.06498194658594        1.25827177892788       -0.01443706006342
H            0.92161705494647        2.47647358030461       -0.01755137031416
H           -1.89924100704759        2.03787543546030       -0.02000258391299
H           -3.44611662274438       -0.04762819299844       -0.02601043483853
H           -1.90706726446179       -2.19852819333438       -0.00703356909473
H            1.01572026092126       -2.49721543260188       -0.00643030149850
