15
 energy: -3.218207756065 gnorm: 0.000850833263 xtb: 6.5.0 (97a52f5)
C            2.19787801454572       -0.70562419312963       -0.00068142215600
C            2.19263843486204        0.69912563564140       -0.00128942653452
C            1.01738301534282        1.40452911459263       -0.00146946496698
C           -0.18288699992108        0.68767650625494       -0.00113145550576
N           -1.52918709041426        1.03588011221946        0.00007057300159
N           -2.33396263848679       -0.02863866939720        0.00169004793418
C           -1.55766490619101       -1.08835573759946        0.00090625311986
C           -0.18465820213829       -0.71086052223119       -0.00052883600350
C            1.02916543482236       -1.41941848729467       -0.00021108270907
H            3.13957293532971       -1.22906903649982       -0.00048057281633
H            3.13025899588232        1.22989773142564       -0.00155751136394
H            1.00219258196057        2.47971949664192       -0.00178042430444
H           -1.88675905653140        1.99581875428603        0.00354835246471
H           -1.92336496188960       -2.10328307241515        0.00175851215309
H            1.02404444282688       -2.49491763249488        0.00046645768712
