80
 energy: -17.665419933359 gnorm: 0.000837837989 xtb: 6.5.0 (97a52f5)
C            2.52959880210410       -1.34440585978519       -0.02510930004879
C            2.57634593495337        0.04081996871108        0.16077257039918
C            1.45649814062033        0.79861004781312       -0.01760525859428
C            0.23301805132117        0.20864541186465       -0.39591432363410
C           -0.96094809598005        0.98560014846848       -0.58809653159196
C           -0.95969939959695        2.46174731067461       -0.41835526885024
C           -0.26772670388558        3.29508651559364       -1.33742485160687
C            0.43446154369366        2.74489952099693       -2.43674464844835
C            1.11603702116661        3.53559205634070       -3.30977628612941
C            1.13482098795931        4.92378361830584       -3.13448497375952
C            0.45948970595607        5.49352790359439       -2.09901258267108
C           -0.27691883458957        4.70996423030172       -1.17703675712256
C           -0.99633777731395        5.30727631071897       -0.10711574437962
C           -1.03877674099211        6.78292236244126        0.04241094066523
C           -0.57472062330242        7.40730293162400        1.20608855119130
C           -0.65792232560865        8.76877044818930        1.36098520318164
C           -1.20294172476644        9.57779784863735        0.36027537864364
C           -1.32605314841335       11.03799287517734        0.54369964050301
C           -0.40972941773276       11.74966872278414        1.32269890813049
C           -0.54353409996942       13.10352442233830        1.51433534491594
C           -1.59652743181180       13.80495137903872        0.93324091023069
N           -1.74901960297474       15.21561922337904        1.14993747437757
C           -2.02226622828832       16.18802814242211        0.16141150067281
C           -2.15834446527299       16.07235486550693       -1.22159344158723
C           -2.41055349314355       17.20378184011112       -1.95939579068191
C           -2.52607452468351       18.45322447265516       -1.34592531679844
C           -2.38482004850010       18.58696088235339        0.01548468492234
C           -2.12751303521838       17.44727584357863        0.77688166552925
C           -1.91949295361212       17.25123764073100        2.19401529288578
C           -1.93204705066274       18.13249466208813        3.27475596963419
C           -1.72208085519308       17.63079027422277        4.53802059091699
C           -1.50333297674386       16.26608590097580        4.74057351298003
C           -1.48790283401864       15.38638039619879        3.68516025936288
C           -1.68840660025758       15.87955691591012        2.39620263799876
C           -2.50841152465243       13.10383569788443        0.14921250556625
C           -2.37768402205101       11.74965393704242       -0.04016293348483
C           -1.64980748088426        8.95710067706099       -0.80935560153863
C           -1.57219143411037        7.59542648667648       -0.96495003877505
C           -1.69302282946774        4.47381728525497        0.80938400770189
C           -2.45056327980482        5.01916482030275        1.87509052973244
C           -3.10811201674812        4.22175051892062        2.76064779185609
C           -3.05179063996459        2.82960764595222        2.63210634193320
C           -2.35267691483257        2.26484317788181        1.61013576847300
C           -1.66621632157925        3.05820583239856        0.65952638355783
C           -2.13054144653574        0.32610790020488       -0.92787038672353
C           -2.16690989968370       -1.05479695194931       -1.09598058482396
C           -1.03911995500861       -1.80457574539835       -0.92671156197009
C            0.18447043147104       -1.19514511363186       -0.57299041616021
C            1.36292558807105       -1.95182805034122       -0.38175938620687
H            3.42163903417983       -1.93222796970211        0.11798857942504
H            3.50401962829561        0.50955036697722        0.44604376094714
H            1.49656048015734        1.86378170780588        0.12822843915815
H            0.42658620864240        1.67806020950549       -2.57439728564518
H            1.64770996750415        3.09427133838988       -4.13694804307344
H            1.68564248719336        5.54137898698248       -3.82505682206168
H            0.48738913480771        6.56057051547181       -1.96811145548611
H           -0.15026538417181        6.79905221403101        1.98645119335272
H           -0.32193444036155        9.22171732787777        2.27738261873082
H            0.42088840538473       11.22768514258182        1.76480623637423
H            0.17581441429581       13.64296275592719        2.10521750692315
H           -2.05669066686382       15.11023084577005       -1.69036799439740
H           -2.51956058460114       17.12724903390625       -3.02883851531497
H           -2.72455999879598       19.32412208859453       -1.94883139597737
H           -2.46467511428563       19.54624976996601        0.49555585316425
H           -2.11069793391207       19.18079148005209        3.11167242489630
H           -1.73189464162111       18.29831029755634        5.38405996660467
H           -1.34747828359372       15.89721414500661        5.74122997746348
H           -1.33755356139353       14.33281052159623        3.83769064361094
H           -3.33570087920759       13.63673861627029       -0.28581017583709
H           -3.10999430635407       11.22009080985984       -0.62416364191454
H           -2.05373656578845        9.56122546973893       -1.60291949693401
H           -1.93991360267242        7.13147629327616       -1.86414740695300
H           -2.51121610116397        6.08783064816846        1.97680818517698
H           -3.67449972288089        4.66077415327038        3.56577606574253
H           -3.56839884259585        2.20625603058339        3.34357612343354
H           -2.31394837123631        1.19396538998493        1.51656754603639
H           -3.02619704696203        0.90610323261817       -1.07047054516572
H           -3.09509427252096       -1.53358073533184       -1.36234208357751
H           -1.07138279962982       -2.87251748838594       -1.05734323378417
H            1.32529591072981       -3.01866055058357       -0.52034940531649
