45
 energy: -9.821343784934 gnorm: 0.000877707544 xtb: 6.5.0 (97a52f5)
C            3.64625766970391       -0.67962038337265       -0.05847519193159
C            3.64717753737419        0.72396382341029       -0.01449941431940
C            2.47675883367924        1.41440962458911        0.00204531769031
C            1.22736793692492        0.74432652283922       -0.02687229646464
C           -0.00130301223708        1.45004688350466       -0.00153417096780
C           -0.01407360241490        2.93213738080054        0.03365964536942
C            0.49155460187867        3.69543425723173       -1.00754926332265
C            0.45962061110056        5.07832540549415       -0.94533067989195
C            0.99640743073212        5.84079444934222       -2.05794769540773
N            1.53207380782942        5.30580221791748       -3.12348385190113
C            1.94541886384681        6.26345402190121       -4.00509003975877
C            1.74039700379928        7.54816504375434       -3.63536012498938
S            0.98498454642325        7.59740951749915       -2.09371168872601
N           -0.04742089827736        5.74527965637088        0.10119012134791
C           -0.53595744956090        5.01703220656372        1.11492359019704
C           -1.08744672310507        5.71042287392944        2.26500028941974
N           -1.57476391833684        5.10910824214909        3.31830284832839
C           -2.02183376370263        6.01077191481854        4.24113021955962
C           -1.89062146305622        7.31755870079009        3.91679537852374
S           -1.16274119742607        7.46279053677920        2.36746983697001
C           -0.53462399834697        3.63267375453542        1.11072921900012
C           -1.21834905003517        0.72372980046457       -0.00707562548721
C           -2.47866696470222        1.37373798868544       -0.00541100563597
C           -3.63769478810438        0.66426121160776       -0.01960912020265
C           -3.61386388024794       -0.73957760239660       -0.03925127778680
C           -2.43118828931573       -1.40629112438166       -0.04918387534280
C           -1.19792229147807       -0.70131283673206       -0.03781474330819
C            0.02172224684308       -1.37229771706569       -0.06327479848944
C            1.23012483399349       -0.68079535904496       -0.05890940981426
C            2.47466353748857       -1.36540913797303       -0.07858467134180
H            4.58326402342226       -1.21160106737675       -0.07257717044499
H            4.58547140587157        1.25345332127911        0.00779812731375
H            2.48913119052940        2.48885789608785        0.04448376706713
H            0.90512056470649        3.21291605388159       -1.87352872712067
H            2.40632107460383        5.98257716659829       -4.94411774347605
H            2.00295619415138        8.41659613408098       -4.20849661189338
H           -2.45588433089533        5.67123327748549        5.17326677615664
H           -2.18981677464905        8.14975692015081        4.52503287087996
H           -0.93646428855419        3.09969791934103        1.95229543506082
H           -2.50880548714784        2.44864680437036        0.00064672562928
H           -4.58447830464121        1.17895319174533       -0.01816118058282
H           -4.54205358956991       -1.28686991568257       -0.04974055035952
H           -2.41434540140704       -2.48226285701932       -0.06837581271623
H            0.03047651985915       -2.44679385113038       -0.08680042426526
H            2.47530903244900       -2.44129286781895       -0.10730300256484
