39
 energy: -8.438998877447 gnorm: 0.000708016312 xtb: 6.5.0 (97a52f5)
C            2.44345011524954       -0.72344203370709       -0.15028635658438
C            2.46503617549230        0.67490281970079       -0.14031110984161
C            1.30143940230555        1.38207399432640       -0.09814642611498
C            0.05211340159386        0.72554998942284       -0.06504207277664
C           -1.18734161877694        1.44170882612040       -0.01021380631036
C           -1.22210591940157        2.92239394469685       -0.02081487110524
C           -0.69857748020635        3.66161096063891       -1.06709601632314
C           -0.75296754748679        5.04601581119528       -1.04505913299262
C           -0.19615476634574        5.78564636855954       -2.16324561872615
N            0.36877217001756        5.23022548127367       -3.20249478252475
C            0.79549428194515        6.16990725812860       -4.09736101495945
C            0.57042745544742        7.46132200961886       -3.76483193760129
S           -0.22254913075338        7.54026153313998       -2.24318913307994
N           -1.30057355011776        5.73347461702061       -0.03395763509800
C           -1.81187745980973        5.02576975003030        0.98227756239687
C           -2.40511948316092        5.74231114371276        2.09681400017998
N           -2.93630349971838        5.16360912007944        3.14110119458896
C           -3.41280680777896        6.08422009075731        4.03064776801687
C           -3.25800724857774        7.38392794387863        3.69055613919906
S           -2.47230350238174        7.49622479520606        2.16714203614510
C           -1.79310689306430        3.64065845242212        1.01465448814633
C           -2.36430010118622        0.73003103860722        0.06079670208849
C           -2.37324599501717       -0.66464190528995        0.06233250028511
C           -1.20572610881504       -1.36371675898896       -0.00079396059663
C            0.03334223783525       -0.68993416003431       -0.06279146332288
C            1.25837225668402       -1.39295371729281       -0.11177451757412
H            3.37117980445623       -1.27056939278677       -0.18462554910008
H            3.40971584622536        1.19299829376228       -0.16396983410436
H            1.32659597832404        2.45702562601711       -0.08043409032126
H           -0.25445256738734        3.16205902460589       -1.90803417355278
H            1.28183495409015        5.87030353442391       -5.01753453879879
H            0.83979907011981        8.31796916804489       -4.35250658850665
H           -3.88235797189844        5.76335583564056        4.95233315352130
H           -3.57257615930947        8.22782481782527        4.27425640677318
H           -2.21566107970767        3.12407222079835        1.85632621762574
H           -3.29444728562559        1.26998908528169        0.10402238373653
H           -3.31261501483102       -1.19037417277749        0.11255881902744
H           -1.21528129575270       -2.43990382710120        0.00095360507901
H            1.24198533732319       -2.46909758695733       -0.11413834689350
