30
 energy: -6.754340945442 gnorm: 0.000665690081 xtb: 6.5.0 (97a52f5)
C            1.09749678611308       -0.10909979802398       -0.18920366535421
C            2.62409601553210        0.04468270869974       -0.02019802175427
C            3.39506396689294       -0.65596358412276       -1.15980382964711
C            2.92753496846257        1.55657782607845       -0.15981348813665
C            3.07355664508642       -0.50918274920677        1.35365339041823
C            3.64292150781522        0.34866874521376        2.27124589006299
C            4.09087586479647       -0.07960616276244        3.51953788702677
C            3.97746368928310       -1.39309444719376        3.87560674843576
C            3.40708758670799       -2.31951754704862        2.99982665139533
C            3.30403271816783       -3.71631590177784        3.41182333784618
O            3.72479097767888       -4.09966391814243        4.52767702872225
C            2.70936920537757       -4.62014044190955        2.49883748449970
C            2.24825073434946       -4.19616549168103        1.27198139446209
C            2.35268983941952       -2.87873359449120        0.88772406534143
C            2.93643736863155       -1.89281099586616        1.72387990796095
H            0.77373904943135        0.27497061245751       -1.15918025212815
H            0.57031745025423        0.45564715003004        0.58308220033238
H            0.75903561191250       -1.14130741299785       -0.11809867668350
H            3.08228557019073       -0.27270300351535       -2.13350564121700
H            3.25402917420157       -1.73483611640583       -1.17469871046336
H            4.46753023629159       -0.47413250381091       -1.06114658308763
H            2.61505632246479        1.92392742038983       -1.14004247522150
H            3.99653941919528        1.75912934314239       -0.06491627939683
H            2.39085417925736        2.14226486871306        0.58967938528206
H            3.75710582047428        1.39245325818311        2.03313219596618
H            4.53161513673897        0.62938493823427        4.20528945848515
H            4.32602952356179       -1.72940952638411        4.83887131832624
H            2.62409481487234       -5.65427106303951        2.78708738885982
H            1.79653086079915       -4.91186362302725        0.60032080649559
H            1.96887895603885       -2.60873898973343       -0.07798891682840
