68
 energy: -14.984758872314 gnorm: 0.000387123911 xtb: 6.5.0 (97a52f5)
C            2.93271006872873        0.10173832982661        0.12659547804283
C            2.59169158658597        1.45476222506953        0.07058363095875
C            1.28542756802076        1.83577630742399        0.11286986848589
C            0.23979933155516        0.89149555473737        0.21535540715921
C           -1.14997186993748        1.26139614490644        0.26478280128528
C           -1.57813236924766        2.65146394481985        0.20737754675958
C           -2.86412627070683        3.12678391465393        0.27073290002368
C           -2.97705925137373        4.53333896043912        0.17693190274158
C           -1.78237633044388        5.18137752387072        0.03716798484218
C           -1.62635455197625        6.61008378972540       -0.08886359889084
N           -0.46110036503131        7.24280922883789       -0.27705487679703
N           -0.69580726851059        8.51645755177923       -0.34950145502765
C           -2.01210949921105        8.70919091523142       -0.20773644214425
C           -2.66984567710585       10.00628108727391       -0.23248338378282
C           -1.94794306449649       11.17382597486780       -0.47088499339353
C           -2.57924664684601       12.39239233880794       -0.49057136690933
C           -3.95188263862839       12.48198417272682       -0.26932935070368
C           -4.63015620553235       13.76850993094329       -0.27961198938905
N           -4.04073394194604       14.94017282959238       -0.54294027124999
N           -4.93799283585575       15.87344933673279       -0.46441429181703
C           -6.10931864192040       15.30595259660429       -0.14847641821875
C           -7.35226449578802       16.01631610814862        0.03174886372997
C           -8.54045906676791       15.43308268354485        0.36902015955669
C           -9.61188752748631       16.34433336929440        0.48072684820764
C           -9.26900339248329       17.64638580308614        0.22399832420954
C          -10.14813806707519       18.81495261463434        0.26223567466222
C           -9.67277567315036       19.98978559410028        0.81091393699778
C          -10.47243841872995       21.12416143127190        0.92293894885885
C          -11.76170707092385       21.10615673352695        0.48157035294686
C          -12.30031885253510       19.94708078448112       -0.11686439483666
C          -13.62448680043305       19.92281083359079       -0.60958877070808
C          -14.11731667042840       18.81367089791000       -1.22691255256713
C          -13.31183474223375       17.68375839028982       -1.39082447096367
C          -12.03271653448779       17.67317477251278       -0.91937418405250
C          -11.49108670468076       18.79068760603822       -0.24871906891727
S           -7.56281762751820       17.73208163012109       -0.14300334136882
O           -5.95309243774950       13.95908959653096       -0.02260833544381
C           -4.67313965677023       11.31504954530064       -0.03138675749085
C           -4.04222951511530       10.09608908720276       -0.01510224375205
O           -2.64246521877304        7.51499525775717       -0.03771318503923
S           -0.49343364256494        4.01112246561137        0.03689920604290
C           -2.09049500275086        0.25366190477875        0.36459492913658
C           -1.72876216110866       -1.08996334183870        0.41840657077586
C           -0.41765696602677       -1.45592755167087        0.37423334699623
C            0.59522114591705       -0.47999693403087        0.27190780953286
C            1.95959307241315       -0.84539490357818        0.22480113676414
H            3.96953757778788       -0.19014918977415        0.09211137443579
H            3.36859914566490        2.19758594418428       -0.00616142355326
H            1.04416374088608        2.88959261885962        0.06907464733691
H           -3.72728712889621        2.48959914977777        0.37783934161825
H           -3.91881274671213        5.06000377061848        0.20391416540199
H           -0.88769734514805       11.10480579621955       -0.63999542257218
H           -2.02196854553230       13.29421121351285       -0.67451682602972
H           -8.63675517480356       14.37139789385851        0.53733927611569
H          -10.60378146844098       16.04805721638507        0.78500427437237
H           -8.66097706552724       20.01363025427381        1.17678435837650
H          -10.06846129375928       22.01892497253770        1.36755475385113
H          -12.37967620594622       21.98252979320519        0.57220645158607
H          -14.23898394518910       20.79906581696969       -0.49641412843563
H          -15.12792389247724       18.80814803645625       -1.60110155936196
H          -13.70564669920356       16.81869932385112       -1.89860791086494
H          -11.41319319158752       16.81139567018930       -1.08793160324987
H           -5.73350965394133       11.38686242963928        0.13957237474876
H           -4.59821018850635        9.19265955592239        0.16798342138058
H           -3.13426388787760        0.50854118775061        0.39889635223852
H           -2.49432902149165       -1.84470069596378        0.49568534318450
H           -0.14086339200367       -2.49505224709143        0.41657624874803
H            2.22068128385423       -1.88858554913779        0.26766860541489
