110
 energy: -24.222323476449 gnorm: 0.000612442396 xtb: 6.5.0 (97a52f5)
C           -1.89783573078010        1.00048906921100        2.47719926572244
C           -2.19042421148667       -0.31527295306273        2.11603114502846
C           -1.23935595812526       -1.08588834620142        1.51416016203572
C            0.04520606787522       -0.57383050666476        1.24342500492651
C            1.05886084593189       -1.35605221139355        0.61839597096069
C            0.80861904512148       -2.77261840979074        0.24687095836130
C            1.47316533613993       -3.80883733322011        0.90696190667596
C            1.24082520319254       -5.11976801717062        0.57190249420117
C            0.33555895528920       -5.44643981659802       -0.43364463687484
N            0.09017367270730       -6.81897621493509       -0.77659535159969
C            0.07300861616044       -7.36238633474198       -2.07999428401831
C            0.29192410879695       -6.76711374233658       -3.32219209947141
C            0.23458923192115       -7.54898001444359       -4.45009903299704
C           -0.03312163585560       -8.91795714413786       -4.36507508213580
C           -0.24243242582525       -9.52272196378562       -3.14858450206217
C           -0.18698735481766       -8.74100927843388       -1.99404453909711
C           -0.33967051424346       -9.06306714990255       -0.59398502574307
C           -0.61598762013900      -10.25898782546450        0.06988802163399
C           -0.71336299208008      -10.24488927244577        1.44093538222946
C           -0.54341219535045       -9.05944247587996        2.16113675562417
C           -0.27098393255304       -7.87506943313078        1.52096985532934
C           -0.16180049478413       -7.87191153597290        0.13042283547340
C           -0.32876097499825       -4.41724987746435       -1.09546246023769
C           -0.09745315001669       -3.10486276719976       -0.76290506480843
C            2.28550259306669       -0.75932539658432        0.40057042597750
C            2.49839169680780        0.57447687623276        0.82262652657126
N            1.57095264599835        1.31345772600313        1.41585052801990
C            0.34959541770727        0.75321995905775        1.61690104713362
C           -0.65999828860945        1.52038132878660        2.23541354550436
C            3.81935218415104        1.18219007650026        0.60691234845665
C            4.18660647131171        2.32770463863212        1.30847375335424
C            5.42715909342935        2.91186201244496        1.15116077189104
C            6.34085968459189        2.34713946973475        0.25093792547980
C            5.96604978325731        1.21299529462057       -0.46499983092786
C            4.73081302682067        0.62079854175431       -0.29744970843930
C            4.35160320691628       -0.60886838177423       -1.06863056196739
C            3.39767923147345       -1.51818333901583       -0.27299488896823
C            7.67571424905565        2.93291302442428        0.06146109800686
N            8.35855719779412        2.57067159199437       -1.01594775376069
C            9.59050752696690        3.11434751368561       -1.19597965334311
C           10.33446036572744        2.75572999050826       -2.33971896259082
C           11.58298885965679        3.25918923223342       -2.56012311184890
C           12.15465549819547        4.14576037326080       -1.64667252541698
C           11.46332324676861        4.51700694952184       -0.53096214580797
C           10.16841430183431        4.02073399314967       -0.28078610943384
C            9.42379054057680        4.38923849346882        0.87672173394752
C            9.99634807464379        5.31439627944271        1.88846642697942
C           10.31230300010834        4.86188728916576        3.17168701653133
C           10.84451016548978        5.71445875686812        4.10718942276453
C           11.08263868365835        7.05036876254005        3.79702761959192
N           11.64290359454993        7.93946508566747        4.77538595327726
C           11.16554272768120        9.22846595527622        5.09946575887543
C           10.07336106915585        9.94802371413691        4.61496405808823
C            9.82333261460603       11.19720302086831        5.12851488103119
C           10.63965805050481       11.74444105081389        6.12206892211249
C           11.71423055291595       11.04537145553965        6.61805404737357
C           11.98017976021762        9.77484677417640        6.10610484292296
C           12.99467990981827        8.79445304603322        6.41719976787085
C           14.05566610814694        8.79635592087615        7.32357830328518
C           14.87464163589260        7.69396389801739        7.38224061652162
C           14.65621819799568        6.59157824689031        6.55158706777126
C           13.61365310911965        6.57455191442610        5.65738476560321
C           12.76617204533446        7.68037281232948        5.59138767475318
C           10.76963148709648        7.50631032890249        2.51935186091440
C           10.23620114008471        6.65592245968550        1.58214749453772
C            8.16539844235506        3.84048159698254        1.03048582748593
C            7.31621544420781        4.19234499348276        2.22275937925863
C            5.80684673969108        4.13969732183754        1.92509558130703
H           -2.65381004834500        1.60513038853549        2.95093013095012
H           -3.16913230568929       -0.72057354899450        2.31435997104072
H           -1.46350556820933       -2.10168821615279        1.24043118381590
H            2.16979740179310       -3.56417759652534        1.69018807928696
H            1.76798084777822       -5.91186424916922        1.07406421635574
H            0.51139327460026       -5.71628808606493       -3.38109865021917
H            0.40108345114949       -7.10098899527960       -5.41603111151839
H           -0.07135100585570       -9.50755626547149       -5.26628708774489
H           -0.44247114047296      -10.57702878937885       -3.07365816402163
H           -0.75002345273957      -11.16628223410839       -0.49226392210646
H           -0.92690843363805      -11.15982888343978        1.96874592079364
H           -0.62969269407182       -9.07557972478846        3.23527438769407
H           -0.15319669489917       -6.95783664993419        2.06932957268030
H           -1.04069652611090       -4.66735086038423       -1.86227284413693
H           -0.61265503998292       -2.31382929166189       -1.28014345361996
H           -0.42916097717687        2.53317932656444        2.51569468122033
H            3.48217255163925        2.75890422928799        1.99576276890277
H            6.66537569195371        0.78869747244221       -1.16159301431923
H            5.25891888789895       -1.15644292007155       -1.35295669720505
H            3.87891039731055       -0.30407817864364       -2.00966587753693
H            3.96085365029990       -2.06661468345343        0.49088427871187
H            2.96812863971261       -2.28269284113191       -0.93204345829346
H            9.89166753915439        2.06908515427629       -3.03967427449702
H           12.13314835735214        2.97100309514619       -3.44090160313387
H           13.14334938562913        4.53575125040400       -1.82523792644292
H           11.90626191077543        5.19664741665228        0.17534627489060
H           10.13639048355289        3.82863566442619        3.41671149000694
H           11.07077766491719        5.36268255203619        5.09841332970756
H            9.44026750194862        9.51678045680358        3.86056469210974
H            8.98319666321617       11.76390087214082        4.76183386758834
H           10.42018584551414       12.72676621031907        6.50694841428034
H           12.34366320416437       11.45630506758623        7.38754990898979
H           14.21971692843986        9.65099250789581        7.95592351911865
H           15.69951532454963        7.68000140803786        8.07557728264661
H           15.31737202791685        5.74275686073969        6.61357074623152
H           13.44827892669701        5.73390807014953        5.00786922488477
H           10.96787651567732        8.53433018697017        2.27176683711892
H            9.99399470972074        7.01556654876465        0.59690694115188
H            7.59448488604213        5.18953716875482        2.58519958653730
H            7.55596697135915        3.50170164145849        3.03949349717001
H            5.50814641745526        5.02520036817449        1.35187432079018
H            5.22872485004762        4.17741099946469        2.85691354039278
