68
 energy: -14.726068134509 gnorm: 0.000371609798 xtb: 6.5.0 (97a52f5)
C           -2.04706486731554        0.44981888360740        1.63081204236019
C           -2.19779412780849       -0.84934260696484        1.14434596575286
C           -1.15274029662249       -1.47399746070222        0.53034791519002
C            0.08905147648202       -0.82672630450796        0.37312705403310
C            1.20068086956365       -1.45822118554250       -0.25499034159427
C            1.09431976085615       -2.84636421636264       -0.77420317790819
C            1.79234188992111       -3.89969501772526       -0.19935902505383
C            1.65666199907964       -5.16317410056134       -0.71814814883983
N            0.89216928310427       -5.47727379234096       -1.75256927863154
C            0.22962299715598       -4.46717288928967       -2.29467553107294
C            0.29025387189923       -3.16665702858507       -1.85958756690070
C            2.37753936645442       -0.74135343117895       -0.34527901409006
C            2.44019959102818        0.56846031929372        0.18686801048002
N            1.41895864271583        1.16824446974720        0.78098688513131
C            0.24895773216832        0.48371386244071        0.87167725652515
C           -0.85472425706220        1.09840469487844        1.49896906118863
C            3.70305554878981        1.31393248382564        0.09285426227095
C            3.90392364224493        2.44943050595864        0.87318457457276
C            5.08416260800460        3.16380694815571        0.83037578164520
C            6.10825040902178        2.74129543842385       -0.02704134134563
C            5.89889430145469        1.61899443447628       -0.82356273222103
C            4.72164079884436        0.90050014914785       -0.77561307411236
C            4.51826701623822       -0.30432970326044       -1.64589784497187
C            3.59454621964652       -1.34734133653354       -0.99167861869603
C            7.38618481651184        3.46338207992815       -0.09421621999058
N            8.17806658081391        3.20807665640551       -1.12539956827000
C            9.36174820947336        3.87096655944384       -1.19296979187348
C           10.22333560928905        3.61961016044907       -2.28108507332177
C           11.42983255387422        4.24593122186638       -2.38932823422395
C           11.83961102957650        5.15479504658076       -1.41299873656974
C           11.03126793243631        5.42400600551865       -0.34836198120334
C            9.77540826284445        4.79899359279800       -0.21372183955517
C            8.91262931862786        5.05657372858052        0.89031558762842
C            9.30920217022473        6.01027512373119        1.95823590512135
C            9.57365797823889        5.59202828653345        3.25531698346809
C            9.94151142264723        6.51600387999803        4.20143325514306
N           10.07210381355292        7.81466365938624        3.97882454318181
C            9.81966686518282        8.20509902460561        2.73908675029866
C            9.44463257857466        7.37046348514490        1.71580929274878
C            7.71036219201301        4.37853851001005        0.93530457713898
C            6.75026348762007        4.59399545339241        2.07473802129130
C            5.27770032317582        4.38842425434088        1.67512300696386
H           -2.87656376950529        0.93869909273166        2.11495808209697
H           -3.14132238701760       -1.35765486912028        1.25703696240805
H           -1.26707980341034       -2.47793998695061        0.16176488871733
H            2.42543913015481       -3.71569725820396        0.65140178466707
H            2.20293830023029       -5.97654443969322       -0.26426314725249
H           -0.39659286142053       -4.70730295380375       -3.14101723393242
H           -0.27155265733842       -2.39124690242412       -2.35120825824687
H           -0.73240587186063        2.09726897619607        1.87911101350031
H            3.11377337471259        2.77104643249245        1.52647488870582
H            6.68267740486895        1.30712426419652       -1.48915029289840
H            5.49219179029022       -0.74955219306455       -1.88455232944065
H            4.09506524495987        0.02035854995151       -2.60367077418496
H            4.15094937749540       -1.90797004403372       -0.23175656552864
H            3.27776468516145       -2.08822146896051       -1.73588654205795
H            9.90544450217666        2.91499170116262       -3.02934825276887
H           12.07223046678356        4.03804680782332       -3.22932033905279
H           12.79675300467289        5.64177115595089       -1.50229883494164
H           11.35093223101600        6.11905833663992        0.40765080967857
H            9.49662973692593        4.54735113957679        3.50266360292398
H           10.14629175200438        6.18164296660703        5.20760427561413
H            9.92316711764167        9.26169669162337        2.54170271588235
H            9.25096269115065        7.75563989717599        0.72955396163283
H            6.89227771878970        5.60238887007896        2.48244861512993
H            7.01170953839122        3.90509617038274        2.88629014570151
H            4.91754808839489        5.26100682034842        1.11778610979943
H            4.64275157418554        4.32006239819545        2.56724512215388
