40
 energy: -8.926233720789 gnorm: 0.000282369022 xtb: 6.5.0 (97a52f5)
C            3.64557729449683       -0.70345283900974       -0.00438688096256
C            3.64664001880123        0.69723753916526        0.01954981010956
C            2.47364755640020        1.38320954841839        0.02645650170950
C            1.22637734522312        0.71071507446262        0.00962331608915
C            0.00518949887612        1.42609698267183        0.00640700070047
C            0.00591237633587        2.90948989163951        0.00962299317939
C            0.49978594711126        3.65098736270406       -1.05163620929949
N            0.51110668727174        4.96273240462393       -1.06531494360980
C            0.00985607287517        5.52045462964513        0.01911731318709
N           -0.49383119467388        4.95651898155804        1.09917032433421
C           -0.48640921010412        3.64490408044562        1.07585967260909
C           -1.21691606188054        0.71228390525504        0.00420202614009
C           -2.46311195655636        1.38658210693035       -0.01909678953873
C           -3.63717160345824        0.70246584297095       -0.01007427134564
C           -3.63824462005727       -0.69804703945341        0.02381275430194
C           -2.46523592255169       -1.38392253009102        0.03564605783007
C           -1.21796044706815       -0.71155474168155        0.01425619065610
C            0.00322438689584       -1.42693618634893        0.01642027207059
C            0.00255090900259       -2.91027138317612        0.02980446068657
C            0.49444287188620       -3.63836845159103        1.10125847019450
N            0.50261557747735       -4.94978065119996        1.13323495304865
C            0.00010347191202       -5.52113316895626        0.05656564696140
N           -0.50145696917924       -4.97085223801414       -1.03151634887228
C           -0.49062401731307       -3.65905835192476       -1.02667586835708
C            1.22533389293332       -0.71316300352387        0.00966894868218
C            2.47152599092113       -1.38761861276132       -0.00864815616780
H            4.58187607552272       -1.23681489694576       -0.01714416557455
H            4.58376954073749        1.22918204384131        0.03019636213638
H            2.48394814137532        2.45833041877574        0.04927245462334
H            0.88970885339902        3.13650049326290       -1.91627667777813
H            0.01222614548762        6.60282190852515        0.02339203030165
H           -0.87763663906245        3.12508977031271        1.93671447762187
H           -2.47156402492841        2.46156958850283       -0.04890595893704
H           -4.57346082665738        1.23573292720305       -0.02677488865710
H           -4.57537558082358       -1.22990513385840        0.03817888745765
H           -2.47553582524707       -2.45885940102530        0.06610637103142
H            0.88503636287606       -3.11283131469355        1.95892803024087
H           -0.00081629904132       -6.60345130955259        0.06767203635370
H           -0.87982863839336       -3.15074087799945       -1.89527925918349
H            2.47994481917800       -2.46278336910706       -0.03069694397363
