38
 energy: -8.364812566122 gnorm: 0.000640629677 xtb: 6.5.0 (97a52f5)
C            2.42320544723734       -0.78939566322011        0.03989854390267
C            2.44281530428635        0.60937860665760        0.05091495734766
C            1.27566902662903        1.31432352072575        0.03456989079368
C            0.03152662928155        0.65390317301362        0.00066239787203
C           -1.20300919106123        1.37157560010253       -0.01969719392004
N           -1.21615474016669        2.80878172670268       -0.06562376174230
C           -0.64664641237647        3.62008032836775       -1.07208571792791
C            0.02793464874100        3.27927101278627       -2.24398242434987
C            0.48048764671889        4.28529009054794       -3.06240769411472
C            0.26824594888430        5.62802599044013       -2.73741907839663
C           -0.40219592345034        5.98102472824535       -1.59028623371572
C           -0.86737815741302        4.96947884483614       -0.74854430390026
C           -1.60259858476235        4.99772736201445        0.49479659940540
C           -2.08031121362359        6.04680735748158        1.28178980109459
C           -2.75235219663268        5.74666928925795        2.44291483645718
C           -2.95519591412375        4.42023027302186        2.83448424090656
C           -2.48971680475063        3.37744948866703        2.07067276454394
C           -1.80942728855987        3.66448070231278        0.88807157927192
C           -2.38712880662691        0.67025927002411       -0.00085180950618
C           -2.40175564104820       -0.72374810568628        0.01435749640988
C           -1.23373672933266       -1.42981132685714        0.01332782562273
C            0.01046817177559       -0.76129104206513        0.00832248195807
C            1.23777971271665       -1.46244328215831        0.02179924585717
H            3.35253276583573       -1.33510217149899        0.05066438484575
H            3.38650475665488        1.12951405983551        0.07327925469955
H            1.28971143656974        2.38928728226366        0.05211847861131
H            0.18381680136936        2.24339550994339       -2.48724425769453
H            1.00672975071869        4.03659089868835       -3.96941527940858
H            0.63446448188836        6.39695096582570       -3.39769116188116
H           -0.57357585295565        7.01198099321307       -1.33562059701536
H           -1.91726161319056        7.06494828893623        0.97524106189113
H           -3.12754495607648        6.54502768375556        3.06198696841648
H           -3.48393153998054        4.21371802231353        3.75057957689559
H           -2.63710522023177        2.35425995330545        2.36671575769726
H           -3.31213445950853        1.21975817551189       -0.01338504836778
H           -3.34486709451693       -1.24531206442585        0.02264474626305
H           -1.24768112100217       -2.50599267595302        0.02228676808661
H            1.22286693208358       -2.53871286693294        0.02069490309091
