61
 energy: -12.991022932037 gnorm: 0.000689073146 xtb: 6.5.0 (97a52f5)
C            0.99080759709406        1.03538083172766        1.16629801217781
C            2.07742745849218        0.56443526341193        0.18222792083194
C            2.61821143468156        1.76805949145836       -0.61055356770311
C            3.23373068087617       -0.04515848659921        0.99330700076480
C            1.47780898559295       -0.45332770813784       -0.79321292080337
C            0.39988884629592       -0.11066877424607       -1.58314546660244
C           -0.17203528401185       -0.99733778531507       -2.49841910877594
C            0.32821896199488       -2.26294895558102       -2.65319977661615
C            1.41859123910101       -2.64171070248388       -1.87360145765986
C            2.00079455139826       -1.75712288520472       -0.94250010122906
O            3.05996637021579       -2.38088058525608       -0.30092412909065
C            3.17671181264821       -3.66316100011084       -0.81521506817725
N            4.08210480533186       -4.58118601499800       -0.46693590923833
C            3.98359479617303       -5.73306253617943       -1.13366458886192
O            4.80023222581334       -6.84582225151506       -0.98777345394034
C            4.36169888381330       -7.80472861753331       -1.88805432854660
C            4.85301356605600       -9.08269634515393       -2.15582176525135
C            4.25555213219959       -9.85766325150960       -3.13091444159236
N            4.77659925522649      -11.16351133837574       -3.43279897049407
C            5.00769733431769      -12.20258331265907       -2.50867841357686
C            4.77591665455508      -12.27222679076972       -1.13524589725276
C            5.08807456894153      -13.43282929964616       -0.47106778723556
C            5.62701767193939      -14.52972319064324       -1.15019603804670
C            5.85794287140001      -14.47969874715246       -2.50361550426395
C            5.54454462788994      -13.30676361237213       -3.19302376780388
C            5.65638690523559      -12.93621092633820       -4.58350103152473
C            6.13172922568833      -13.61957219907861       -5.70447834414621
C            6.12776109287992      -12.97682867976042       -6.91877536533320
C            5.66128995956453      -11.66408989512702       -7.03651006034319
C            5.18977444107539      -10.97969294648374       -5.94347536343770
C            5.17972353585185      -11.61956293803147       -4.70433313528331
C            3.14777074635691       -9.36163782516281       -3.84301389241217
C            2.64340790380241       -8.11269935778033       -3.59474415595330
C            3.25268693443762       -7.32776659758553       -2.61413445001950
C            3.00304532926488       -6.00229105078137       -2.13499344016099
C            2.06496039712244       -5.05317917459627       -2.48762082816377
C            2.16717508992420       -3.85985248770207       -1.80046125747121
H            1.39991529166176        1.73952796561925        1.88983417815851
H            0.57676943803492        0.19020697826759        1.71480660911830
H            0.17237999486956        1.53104138908445        0.64682847334948
H            3.06815102203460        2.50335965366604        0.05544288865873
H            1.82419865278779        2.26368845865991       -1.16691350571049
H            3.37745752626642        1.44877251605786       -1.32351398205400
H            3.65172705028642        0.67905867120051        1.69156881750528
H            4.03255910240428       -0.38019140272253        0.33288581966759
H            2.89144089837822       -0.90835452303162        1.56276279753409
H           -0.01438343671418        0.87847670481752       -1.49539064009680
H           -1.01472460660828       -0.68041141237734       -3.09053190469248
H           -0.10018809246774       -2.95639755768050       -3.35514683986010
H            5.70539102200264       -9.45030423025359       -1.61744125842891
H            4.35428581107195      -11.42724343196886       -0.62100124951589
H            4.91437077613187      -13.50084967209547        0.59023985968538
H            5.86242102237787      -15.42789471255423       -0.60328997578345
H            6.26985298587631      -15.32015702476259       -3.03368116924828
H            6.49433459330811      -14.62732104151052       -5.60481528208955
H            6.49328612319619      -13.48938481699631       -7.79338199857668
H            5.67481313574913      -11.18196160401633       -8.00014264010014
H            4.83727243304855       -9.96714757314413       -6.02485813517520
H            2.69572987819465       -9.99073107103431       -4.58942240063578
H            1.79855132900835       -7.73066609084146       -4.13990677963401
H            1.32040443989600       -5.22627548909690       -3.24166082882742
