70
 energy: -15.237694948125 gnorm: 0.000166706854 xtb: 6.5.0 (97a52f5)
C            2.81231326985344       -0.69543512270495        2.30456720005255
C            2.80685834262268        0.70598434448204        2.33026568712290
C            1.90248144792148        1.40655126501733        1.59106299544523
C            0.95263019528782        0.74789763452977        0.77930256561811
C            0.00501880009794        1.45100261358247        0.00724311495793
B            0.00451266204018        3.00781928935539        0.01542115914858
C           -1.31239564829667        3.78735936187189        0.29864928215206
C           -2.04492763903170        3.51353381195325        1.47074493590217
C           -1.60958667689645        2.56708892961009        2.42437125639631
C           -2.32450603525495        2.33235412000360        3.55975409077675
C           -3.51589732919043        3.02917120516353        3.80624965890705
C           -3.97232096613318        3.95081577873837        2.91506820045272
C           -3.25371911776966        4.22556842610147        1.72314918129612
C           -3.69943785001639        5.17407318338013        0.80080835029704
C           -2.98426546815807        5.44723258978744       -0.36655997681568
C           -3.44137675053320        6.39843777108959       -1.31489069105132
C           -2.73795421375958        6.63868491550258       -2.45484740067305
C           -1.54492305666411        5.94861696916614       -2.71116309260134
C           -1.07345757055278        5.03144806413867       -1.82149363666123
C           -1.76780177629925        4.75042574356761       -0.62428648701663
C            1.32089379586214        3.79109663878263       -0.25984674113389
C            2.05388978192457        3.52936673410843       -1.43442040891242
C            1.61950589622083        2.59201338197872       -2.39741991151365
C            2.33497380714721        2.36882831861362       -3.53478171482132
C            3.52595318515077        3.06884704524664       -3.77407888104697
C            3.98142542865653        3.98208616347584       -2.87380572852110
C            3.26224562017323        4.24469627769957       -1.67949839517162
C            3.70702572655345        5.18445159036181       -0.74780003244964
C            2.99138920621513        5.44559293509939        0.42202974777158
C            3.44756794119862        6.38780769669270        1.37973760188333
C            2.74375228493106        6.61630653620955        2.52186005104108
C            1.55128401150134        5.92272792728636        2.77121019649540
C            1.08072208935573        5.01394994474494        1.87249808917007
C            1.77543470616092        4.74531552518195        0.67266316960436
C           -0.94179235195970        0.75525449389777       -0.77243481389582
C           -1.89243835430002        1.42159543941020       -1.57695478352178
C           -2.79598152415298        0.72807799270065       -2.32378060375985
C           -2.79970254370657       -0.67354167647282       -2.31349154762145
C           -1.89566678836016       -1.35832271184328       -1.56169957646706
C           -0.93744845280087       -0.67047054755938       -0.77326456513395
C            0.00670097479374       -1.35662314084794       -0.00812966554271
C            0.95000978553260       -0.67775580994070        0.76450399351005
C            1.90910875295921       -1.37303941805688        1.54530848028619
H            3.53664869177568       -1.23584141662799        2.89189306359053
H            3.52612256190182        1.23016573403833        2.93818897601249
H            1.90636749975902        2.48003095834682        1.61966265146992
H           -0.69863090138637        2.02708435052978        2.24163671513340
H           -1.97529228311263        1.60546513238756        4.27480011213493
H           -4.07105309405719        2.83125239004879        4.70862604878040
H           -4.88647284433699        4.48616670761661        3.10589626015596
H           -4.61444736582051        5.70432165153171        0.99268071093320
H           -4.35902371718091        6.92648704633827       -1.12063375968123
H           -3.09781693092239        7.36197716734611       -3.16830409018216
H           -0.99889893135844        6.14755209278773       -3.61889617783589
H           -0.15869316618961        4.50694602328384       -2.02616443317405
H            0.70888433111424        2.04959265716425       -2.22027794021152
H            1.98652062539631        1.64865187110268       -4.25695531376279
H            4.08155276277283        2.88011430182951       -4.67814855417058
H            4.89525447674083        4.51992352962814       -3.05911207959868
H            4.62166958589381        5.71725690449548       -0.93425489540911
H            4.36483320587770        6.91845675161398        1.19084487747768
H            3.10287539164314        7.33291367282230        3.24239898636848
H            1.00496698690553        6.11226386090399        3.68077583456170
H            0.16637749550867        4.48670112939616        2.07188556163792
H           -1.89762521380418        2.49531209177910       -1.59380392920641
H           -3.51588230212821        1.25801696347974       -2.92592961025616
H           -3.52335044118361       -1.20835822113424       -2.90675133687148
H           -1.89636255632685       -2.43473824805320       -1.55709233242573
H            0.00737221149096       -2.43144087171709       -0.01405144503685
H            1.91116632155934       -2.44933646202211        1.52882574527977
