63
 energy: -14.159802419255 gnorm: 0.000911349676 xtb: 6.5.0 (97a52f5)
C            2.31088076151081       -1.86728672767953        0.96682373966582
C            3.03219714946777       -0.89130726833248        0.27328869870526
C            2.42623966437309        0.26615897435761       -0.11590954160999
C            1.07021805240943        0.51354558265167        0.18020251358762
C            0.41346763827243        1.73315853073454       -0.19069459162944
C            1.14311410452586        2.87723412103695       -0.78446060631343
C            2.22431042493777        3.47667976590181       -0.12041455629374
C            2.62580477380107        3.04344675121143        1.23930609158060
C            3.89450084267268        2.53315917107871        1.46474857314189
C            4.27325104869932        2.03968967187388        2.70871068225755
C            3.39747206713127        2.04831557298466        3.75511975672504
C            2.10085908804475        2.58335644344153        3.60252604934596
C            1.18352473561209        2.62241808912009        4.67656187595059
C           -0.05133219084180        3.17660979741099        4.51859462363687
C           -0.42477169762994        3.72551440114851        3.28890411088051
C            0.43604021905621        3.69683289838569        2.23173200487838
C            1.71110129264068        3.10768464953977        2.34663978280782
C            2.91971835764424        4.55321544861550       -0.77555698788451
C            4.00442895027855        5.21249217915438       -0.19182655821717
C            4.64188336305477        6.24661461656442       -0.84428359776473
C            4.21047709973042        6.65701172586315       -2.08542763392572
C            3.12032561282175        6.04568932835594       -2.70237847373549
C            2.47074613749898        4.98458652032361       -2.03867343583919
C            1.33833756981276        4.35250327372238       -2.63426859755556
C            0.89503096221765        4.79308030846798       -3.86143877872116
C            1.50967080069261        5.84931695975403       -4.57021442180212
N            0.99977300095284        6.20430664628415       -5.74972841600029
C            1.63716644334794        7.21349978900944       -6.35747027794885
C            1.17037042782063        7.66755838146401       -7.61327579437550
C            1.78689568010243        8.68736027300489       -8.27206825544597
C            2.90466076696823        9.31136270709242       -7.71199706343035
C            3.38363116443654        8.90456450851006       -6.50289480220089
C            2.77370382684947        7.85148225191162       -5.78676890589466
N            3.28092510615378        7.48997614536966       -4.59459160069361
C            2.64772342587893        6.49621222291703       -3.99644031342309
O            0.67936796610338        3.31139854997690       -2.00304653125896
C           -0.94577294620163        1.84373072242430        0.01618447202191
C           -1.67023001333040        0.83657584384843        0.64896847167982
C           -1.04896434503521       -0.30141511979297        1.07261332508166
C            0.33047525553151       -0.49485221606134        0.84398021637241
C            0.98954165784759       -1.67970095162444        1.24196281978128
H            2.80259590080593       -2.77545964208814        1.27488183333875
H            4.07278281357856       -1.05704753781681        0.04717382689765
H            2.98089577342139        1.00832653564803       -0.66226481973958
H            4.58622424714371        2.48586116926010        0.64141953971328
H            5.26291235201799        1.63448016777528        2.84148667587286
H            3.69079126637286        1.65648582257943        4.71362753601981
H            1.47557407446291        2.20891746115940        5.62632263610135
H           -0.74216356342581        3.19994480034875        5.34538130390815
H           -1.39895512678778        4.17263708146157        3.17814213778906
H            0.14746630616073        4.12869072477164        1.28971955310740
H            4.33953352799177        4.91112351868384        0.78431117225329
H            5.48065020865854        6.73777973641300       -0.37895092778407
H            4.70461303520656        7.46599318843701       -2.59381194061265
H            0.04106024877242        4.31209720379719       -4.29822512240814
H            0.30893297943433        7.18466024461336       -8.03993292981453
H            1.41330301045440        9.01687640452064       -9.22764209062599
H            3.38740126535186       10.11727697861545       -8.24010403622931
H            4.24366836189804        9.38326054800061       -6.06864847852250
H           -1.44244264683553        2.74566560533859       -0.29786435249681
H           -2.72712161337656        0.96566498513118        0.81542859548573
H           -1.60851254570589       -1.07343590827264        1.57170990911554
H            0.43043587849166       -2.43751962845651        1.76299191245321
