103
 energy: -23.504112882343 gnorm: 0.000324358520 xtb: 6.5.0 (97a52f5)
C           -3.71593046443960       -1.23167247195338       -1.15578089261737
C           -4.46960087150219       -0.10385994773962       -0.87963237738192
C           -3.85149743395250        1.06553389187269       -0.48340669860044
C           -2.47823139737526        1.08726595267462       -0.36781407406888
C           -1.69713305135673       -0.04295736686621       -0.64081077141486
C           -2.34028412396361       -1.21237339909019       -1.04087686487810
C           -0.27043391138471        0.28708104794311       -0.42899112752582
C           -0.18335305488020        1.62830519101753       -0.02875338586168
C            1.01322529806555        2.24437521570173        0.24501787037436
C            2.20376024912067        1.52541841501292        0.12867935151904
C            3.46785873022351        2.13136373044134        0.40440358611304
C            4.61961270799818        1.43433621911747        0.29405791295727
C            4.61508906722989        0.06146794946026       -0.10337300124274
C            5.79332874299852       -0.67808655685973       -0.22246958438495
C            5.76059895772525       -2.00203029845137       -0.60776856371742
C            4.56097079293621       -2.62366232148363       -0.88383963933318
C            3.35521081325778       -1.92729850129890       -0.77952182477857
C            2.09656703595642       -2.54056535778896       -1.05694626629373
C            0.94054933917502       -1.84904819477864       -0.94937490116620
C            0.91458292036652       -0.47598402764010       -0.55542553944564
C            2.15492083516230        0.16283459995306       -0.27096549421124
C            3.37679418078994       -0.56827280723103       -0.38499960938272
C           -1.57540667613229        2.23878976765569        0.04202681303693
C           -1.90839958694677        2.78823231660602        1.42780858699149
C           -1.94105388063506        2.15067772209047        2.64475124185772
C           -2.28903497280452        2.86999059011560        3.79220715873025
C           -2.32332964406394        2.19369421208627        5.11052784209889
C           -1.18396225431658        1.52731175183682        5.56893274689968
C           -1.15439212149386        0.89954340426112        6.78992128476929
C           -2.27677059486638        0.89906767621839        7.62228435793767
C           -2.27409396836063        0.25975162139806        8.90030980720412
C           -3.37299433374819        0.26085017259122        9.68802079688632
C           -4.58249119562596        0.89893917754831        9.26947734894299
C           -5.73318688743007        0.90724773745896       10.06017671937527
C           -6.88650263401526        1.52514966124116        9.62224238140951
C           -6.92875043138795        2.14789334742668        8.39205339409636
C           -5.80471704895512        2.16956144855056        7.56383679768831
C           -5.81281610718544        2.79683294333736        6.28000802638359
C           -4.70925374451350        2.80582104857791        5.49901807196784
C           -3.48654220413111        2.19629202623833        5.91871677490016
C           -3.45420973955630        1.54866018897463        7.17904851704760
C           -4.61607762679562        1.54064038841989        8.00680802234843
C           -2.58219597908250        4.23678309883344        3.67258542509876
C           -2.54759884645241        4.87776062443170        2.45444332055720
C           -2.20979488284397        4.14942202400776        1.32059186323636
C           -2.09594587801775        4.56277292811990       -0.08269163897734
C           -2.28388027628589        5.80299194521312       -0.67987286860871
C           -2.10693364901866        5.92146241111729       -2.04027470420412
C           -1.75305345058160        4.82041351224764       -2.83469698363135
C           -1.56854971989171        4.95803908262354       -4.29791529009335
C           -0.38164926406278        4.50773331608242       -4.88208949944886
C           -0.14864762151846        4.62089793736598       -6.23055734983796
C           -1.10255591318271        5.19253253271203       -7.07628975368526
C           -0.88565935905476        5.32851711385212       -8.48218705090683
C           -1.82242836222946        5.87887380467560       -9.28682640816046
C           -3.06938425363945        6.34137697050022       -8.76127032634582
C           -4.05545654833396        6.90748263693145       -9.57150499931625
C           -5.25110024253147        7.33689078541959       -9.03327395888284
C           -5.50020917055456        7.21351023325514       -7.68215739847293
C           -4.54716931167606        6.65374637467418       -6.82888146375418
C           -4.77517614473969        6.49545649103268       -5.42748968516989
C           -3.83383774993084        5.95359061778400       -4.62259431448122
C           -2.56768552562356        5.52377379186180       -5.12824287710597
C           -2.32352204477471        5.64437508437367       -6.51960697009592
C           -3.31492362346258        6.21624154277897       -7.37150503983464
C           -1.55335545655514        3.58107736548993       -2.21854118598152
C           -1.72795833608435        3.46114338854637       -0.86086438347300
H           -4.21115220892686       -2.13780417546919       -1.46506375990255
H           -5.54263157832559       -0.13726078174943       -0.97471693716806
H           -4.41974147586952        1.95297776960783       -0.26550167795932
H           -1.78431839326706       -2.10107336222512       -1.26459931154229
H            1.02783831804796        3.27578284406522        0.54632622315169
H            3.48712449223309        3.16488650879818        0.70457251282730
H            5.56313631934736        1.90695235316560        0.50592034587333
H            6.73402823315991       -0.20050019760957       -0.00869125216288
H            6.68114727482817       -2.55609144478487       -0.69348599647220
H            4.54356440613743       -3.65744706646896       -1.18334029480152
H            2.08426234588746       -3.57473866487324       -1.35545549991311
H            0.01897046169893       -2.34960580959246       -1.16531671010845
H           -1.71121821761553        1.10303121238750        2.70960333851761
H           -0.30677506723845        1.52406703454925        4.94472068825950
H           -0.25944997301115        0.40059772439738        7.11981791057788
H           -1.37267891069985       -0.22810008403885        9.22883879829423
H           -3.35316423402968       -0.22562023153334       10.64788722667224
H           -5.71101591919197        0.42163006327594       11.02055744873510
H           -7.76477574323747        1.51910531973611       10.24703205132705
H           -7.83411427089374        2.62436085719591        8.05743619289800
H           -6.72185020573098        3.26247412978397        5.94044886210525
H           -4.74621133387170        3.26947839828089        4.52950270708165
H           -2.82765462531408        4.79065547847064        4.56237125215570
H           -2.77474288930503        5.92586482414451        2.37006137210490
H           -2.55870017421069        6.65135064994849       -0.07819497279469
H           -2.22746119203932        6.88087443855188       -2.51329017530093
H            0.37034740538519        4.07388628168190       -4.24538494378428
H            0.77845793691194        4.27028799828122       -6.65047374959663
H            0.04631002238231        4.98171287930844       -8.89416718894198
H           -1.64194739500776        5.97383428396155      -10.34362457306838
H           -3.87201020988551        7.00409533545116      -10.62774041302471
H           -5.99954214329549        7.77149253670489       -9.67564304986069
H           -6.43736741636724        7.54798197525283       -7.27160545222424
H           -5.72010936219924        6.81196775125268       -5.02077909917003
H           -4.04141837511243        5.82438158549544       -3.57560623083170
H           -1.27665400047768        2.72228780602118       -2.80201689568579
