95
 energy: -21.508500864510 gnorm: 0.000643745241 xtb: 6.5.0 (97a52f5)
C           -2.45639686488145       -1.04686729911059       -1.27661262675962
C           -3.18974209583109        0.08956359020086       -0.98117943828556
C           -2.55335962046532        1.23382055007033       -0.54235274171007
C           -1.18215718993602        1.22008126755191       -0.40007850074018
C           -0.42412450943304        0.07879960599539       -0.68482086345543
C           -1.08288208919597       -1.06240116546889       -1.13484373659728
C            1.00719193405115        0.37240324842844       -0.43896895238420
C            1.12303748273165        1.68856814118937       -0.02753788551511
C            2.35592826094590        2.27574833263905        0.26260203158927
C            3.49186357943843        1.53461445171382        0.14341649788647
C            3.43843055290330        0.17846148411727       -0.26132926098556
C            4.62151468922489       -0.58774284295624       -0.37346780741426
C            4.57340772643170       -1.89511906678981       -0.74851005126322
C            3.34455702316772       -2.50124341743695       -1.02710282912659
C            2.18513206074650       -1.79120167702811       -0.93239891563538
C            2.18788364478428       -0.43048421616626       -0.55458713451501
C           -0.25229143393560        2.33850040150410        0.04013770158936
C           -0.58511845694013        2.87491217820059        1.43084477534001
C           -0.63330172741313        2.22241166917369        2.63923497868611
C           -0.96667792075961        2.93440963753825        3.79545707675337
C           -1.00578205710650        2.24358267342378        5.10638147186639
C            0.13177836282689        1.57110908374692        5.56051660951439
C            0.15690522118356        0.92848272492964        6.77381829007328
C           -0.96889495559851        0.91711195147080        7.60148099439490
C           -0.97218479030086        0.25927515501700        8.87008183139154
C           -2.07516792874896        0.24799631494229        9.65197191765178
C           -3.28314991982759        0.89102089619459        9.23641498959495
C           -4.43858962432103        0.88512161282698       10.02014270367060
C           -5.59061664965984        1.50708694697681        9.58455158785049
C           -5.62657213049945        2.14878404826461        8.36391433726913
C           -4.49749454426635        2.18588998861247        7.54317632257389
C           -4.49816554881087        2.83515489117130        6.27018910657130
C           -3.39059118224296        2.85679395615417        5.49518119945676
C           -2.17123083384087        2.23816512802212        5.91091955540530
C           -2.14443987540241        1.57283135263807        7.16206811080614
C           -3.31055980712813        1.55179646593383        7.98345705970322
C           -1.23434473036383        4.30782381742868        3.69309385439440
C           -1.18235015248494        4.96416215066090        2.48364542972390
C           -0.85493702988121        4.24416595842524        1.34131307787752
C           -0.71011062625820        4.67754342033130       -0.05339785207927
C           -0.83684649673587        5.93486856176954       -0.63106475134176
C           -0.61858730993855        6.07277883730926       -1.98385931929901
C           -0.28068975644702        4.97512370975615       -2.78997670593568
C           -0.02748646239255        5.13488436075403       -4.24066629058245
C            1.16984872089767        4.65571080055608       -4.77894915495433
C            1.47027083547503        4.78895783267758       -6.11200512554471
C            0.57751230749897        5.41143455445043       -6.98792823827149
C            0.86711884090924        5.57253236977111       -8.37794126154047
C           -0.01178793241323        6.17099049867756       -9.21287622740816
C           -1.26748623448874        6.66226853345895       -8.73652616823022
C           -2.19465287678526        7.27855496902106       -9.57907764545738
C           -3.40036392009954        7.73556763970002       -9.08819962190608
C           -3.71750084920519        7.59228927600168       -7.75335285006405
C           -2.82436975841006        6.98432527688613       -6.86878305606000
C           -3.12196108667103        6.80815504871374       -5.48251722771829
C           -2.23856973351943        6.21778618850844       -4.64656355721021
C           -0.96685400841498        5.75170896434813       -5.10343064558839
C           -0.65335151588448        5.89194231426709       -6.47900364553451
C           -1.58328877577188        6.51565299293269       -7.36312219059056
C           -0.14544804767952        3.71759254612835       -2.19391521012020
C           -0.35879607565510        3.57910342217691       -0.84376957176872
H           -2.96549084192937       -1.93091826242020       -1.62477647658793
H           -4.26117996195863        0.08330423182538       -1.09767710345866
H           -3.10549919832960        2.12871964463319       -0.31381200251118
H           -0.53857367588830       -1.95113311815535       -1.38671306986718
H            2.39030647097196        3.30572625551168        0.57230766992547
H            4.44964860915316        1.97485062994788        0.36134485344014
H            5.56634543035197       -0.12028280886100       -0.15504693600940
H            5.48259802483401       -2.46844478703676       -0.82869294354862
H            3.31829185546458       -3.53934349907350       -1.31632997170132
H            1.25597315454310       -2.28315497876923       -1.13790325116929
H           -0.42228602248019        1.17009169436493        2.69156236357296
H            1.01081307025565        1.57503587766771        4.93887685791219
H            1.05045614990777        0.42513536336981        7.10084004933541
H           -0.07206863256881       -0.23305299499117        9.19554381097270
H           -2.06019144691338       -0.25284192573505       10.60451159966100
H           -4.42117594940612        0.38489286686459       10.97309641932955
H           -6.47290028545430        1.48912943373674       10.20340884729314
H           -6.53085097793450        2.62855698961039        8.03113738903135
H           -5.40508304005765        3.30765017523438        5.93448734731269
H           -3.42064338409897        3.33819603620890        4.53408058559725
H           -1.47100370016030        4.85457234905964        4.58963266909048
H           -1.38524863453109        6.01826187842729        2.41326296738222
H           -1.09191411274115        6.78205364193150       -0.01907973866649
H           -0.68809804858582        7.04533302958054       -2.43993158758735
H            1.87531634358318        4.18233684718618       -4.11759203680386
H            2.40391589285179        4.41534858530934       -6.49600571964199
H            1.80700988489993        5.20545727036382       -8.75258033469933
H            0.22277140288573        6.28437027843871      -10.25716146509949
H           -1.95718988876157        7.39272236411460      -10.62273583723632
H           -4.10309767515646        8.20769362992899       -9.75526363506372
H           -4.66202204285228        7.94886947232296       -7.38005839468545
H           -4.07240810675593        7.15253737043332       -5.11301803252438
H           -2.49719147532055        6.07753818378313       -3.61243167126570
H            0.12117470502019        2.86144616676557       -2.78597767176717
