71
 energy: -16.032764024663 gnorm: 0.000785424277 xtb: 6.5.0 (97a52f5)
C           -0.80345514875854       -1.01160827106334        0.35725439715440
C           -1.33401440121127        0.24431472042462        0.60892474325286
C           -0.62085804576347        1.38776189228280        0.29720478684237
C            0.62965474918939        1.25941387644444       -0.27012382087665
C            1.16673088956475       -0.00374555332444       -0.52563784571872
C            0.44761670887447       -1.14776636067645       -0.21043075321339
C            2.49743572997320        0.14896126384230       -1.12881394202630
C            3.40457749382080       -0.80700490193223       -1.55158870724006
C            4.61251027999957       -0.40166768915274       -2.10750354593543
N            5.56377653160385       -1.38232135730578       -2.55714605853982
C            6.16300350478072       -1.44062344594903       -3.83260405212595
C            6.00791033245777       -0.62560747059406       -4.95392604449204
C            6.71632147531743       -0.92535817629105       -6.09169162545087
C            7.57734721659008       -2.02611387684492       -6.13578994943268
C            7.73728114237696       -2.84313689619574       -5.04234734972813
C            7.02307964767939       -2.55169326487156       -3.87875850151917
C            6.95492426605759       -3.20110384540084       -2.59042914604621
C            7.58945376245213       -4.33098740795743       -2.07105266800667
C            7.31872369795920       -4.70204753048719       -0.77573300015153
C            6.42836088588898       -3.96643501103734        0.01231476945030
C            5.79519298969285       -2.85401113928265       -0.48530518239681
C            6.05366994400209       -2.46678953344593       -1.80019731548453
C            4.89310342489094        0.96078846257594       -2.22782960924144
C            3.99276249772315        1.91648567501765       -1.80294291150296
C            2.79494767384531        1.50793429059094       -1.25284423593500
C            1.62880610715829        2.33769717100377       -0.70676125233801
C            2.08992192038012        3.16794198188623        0.50718477934656
C            2.52882090938432        2.48896460152491        1.63152265914935
C            2.92462795831667        3.15911425201706        2.76936151461932
C            2.87984888789331        4.53575328635100        2.80048153281206
C            2.45536844513458        5.23269051322533        1.69251121197660
C            2.07283373692697        4.57515032832786        0.52848333254429
N            1.63558787001495        5.30343797492077       -0.62684375185013
C            1.54096882779359        6.67715148501163       -0.97554540016287
C            1.96814147250698        7.84636991197130       -0.33840072585518
C            1.74231892599014        9.06098446514289       -0.93919973190391
C            1.10155077148998        9.14937925087950       -2.17691414135686
C            0.68759400840088        8.01785506565885       -2.83402640995532
C            0.91042868042057        6.77633814702746       -2.23602218218720
C            0.63336720454284        5.43742019637632       -2.69507181080284
C            0.05830317911129        4.90239319833261       -3.84966083558118
C           -0.02324920139998        3.53398620933846       -3.96831537750633
C            0.46179871802143        2.68735188909417       -2.96476566911193
C            1.03274573649198        3.19307629551606       -1.81667106721277
C            1.10615690098557        4.57814168121193       -1.69771469182456
H           -1.37338891797142       -1.89149794864850        0.60737167752460
H           -2.31245963519832        0.33157635610441        1.05218015100121
H           -1.02190362643473        2.36772139662711        0.48847409195682
H            0.86777512231948       -2.11813689258356       -0.40847249738804
H            3.17498359201744       -1.85228492849533       -1.46421177591017
H            5.33745150136674        0.21419418623905       -4.91572673486911
H            6.60637186270863       -0.30402507776081       -6.96539218617503
H            8.12083713694393       -2.23778321348757       -7.04198873498705
H            8.39415139580118       -3.69462382013584       -5.06949229899175
H            8.27543340299220       -4.88983334233460       -2.68290176331087
H            7.80091422384685       -5.57127334545555       -0.35942753120766
H            6.23757807944004       -4.27740972133311        1.02639536862039
H            5.11522637035526       -2.27879296851115        0.11718631340244
H            5.83678555554425        1.25669910270110       -2.65136628665112
H            4.20742115791224        2.96684955064562       -1.89249708682074
H            2.55155758633999        1.41303940084800        1.60926293804000
H            3.25799846175844        2.60826490843904        3.63371249630252
H            3.17305505974392        5.06523104704192        3.69247584378078
H            2.39298168689907        6.30176585656740        1.73924599221743
H            2.49603900875915        7.80169502158910        0.59448861022981
H            2.07099783640328        9.96383706146382       -0.45067928156153
H            0.93917471026486       10.11641817730990       -2.62404192409450
H            0.20512909340505        8.07163854545097       -3.79406577991790
H           -0.30523766111446        5.55667240553498       -4.62218629385421
H           -0.46299350738990        3.10398154014749       -4.85306912592434
H            0.39986219469750        1.61977034783128       -3.08536859583891
