54
 energy: -12.489016096595 gnorm: 0.000558502178 xtb: 6.5.0 (97a52f5)
C            3.15290614860463        0.02517271486095        2.84762680498262
C            4.27737891013539       -0.21412084161956        3.62722550265785
C            5.33330391687071       -0.96158442769144        3.14533060066838
C            5.28038345803215       -1.46094131713609        1.84571911058956
C            4.10386359668916       -1.25907081377129        1.07918159741102
C            3.04957015817425       -0.50410285581591        1.57739446087181
C            4.22206423445661       -2.02594841608100       -0.15450541162278
C            3.41089487907235       -2.22873038447826       -1.28115776946602
C            3.85746814207064       -3.03679101191542       -2.30119309749785
C            5.12251346256357       -3.69306742202880       -2.24593370058705
C            5.65203612818677       -4.47969976949713       -3.28427144949764
C            6.90725223417096       -5.02885317993523       -3.16638363852283
C            7.66980111279552       -4.86049814647660       -2.01462722025647
C            7.18001441366764       -4.15042217592500       -0.92346720546933
C            7.90129803774932       -3.92803766144704        0.33479022131754
C            8.98478146810048       -4.73375150634680        0.74387121434547
C            9.79697707043779       -4.27622108982920        1.81248445332636
C           10.88136158460324       -5.11916290118833        2.05886999244853
C           11.81645800863145       -4.75511314872161        3.03952591505470
C           11.65836847599868       -3.56972140011568        3.71974016651416
C           10.55806469075080       -2.69701626134134        3.47094877836390
C           10.37810342742991       -1.45147703660875        4.09818427754236
C            9.31428903844729       -0.65038891587337        3.75520790366379
C            8.37023589393710       -1.05659462008013        2.81705607475712
C            8.45021758049121       -2.30436704157845        2.20760171950490
C            7.49963380734273       -2.82684918109756        1.21934751300715
C            6.19436353534908       -2.31216205087535        1.07164518184314
C            5.45575716437689       -2.67420013880655       -0.08364523413778
C            5.92276875736005       -3.52650824264047       -1.09217903593436
C            9.59178964653996       -3.08061665475457        2.51257934573973
C           10.71897812970976       -6.25112839098106        1.15517244197044
C           11.45098189357734       -7.42570147059087        1.03577463587681
C           11.00439017990163       -8.40175980758796        0.16843609740965
C            9.83062530156516       -8.22742640214382       -0.55361317802830
C            9.09310003659254       -7.06544459890710       -0.44584540943594
C            9.54855086449346       -6.04133157013921        0.38156900645898
H            2.34242911755816        0.61243674612366        3.24730044626556
H            4.32133205812436        0.18096429301479        4.62906715777711
H            6.16491483448749       -1.19974131473503        3.78305789748423
H            2.16638968828144       -0.35692310950390        0.98094729982645
H            2.45490608104037       -1.73928127365198       -1.33940164613798
H            3.24697564914077       -3.17929863950919       -3.17560000594225
H            5.07521196343436       -4.62115110982393       -4.18166397763989
H            7.31388635017322       -5.59799286544808       -3.98637945924453
H            8.67728827937327       -5.23461094596709       -1.98515054454407
H           12.65301894108428       -5.40130290560913        3.23819603457486
H           12.38368442085370       -3.27779075204863        4.45887188348782
H           11.09803281114797       -1.12227351627926        4.82712708352715
H            9.21102291495279        0.31722552246109        4.21858757843213
H            7.59665752323766       -0.37488405753173        2.51267231276355
H           12.33820520521087       -7.56723399779531        1.62755296447429
H           11.56149792607007       -9.31866749056377        0.06662205838757
H            9.48446036406818       -9.01693429154588       -1.20053453305513
H            8.15180048289174       -6.97116215241860       -0.95568321630683
