89
 energy: -20.123137915727 gnorm: 0.000549533633 xtb: 6.5.0 (97a52f5)
C            3.18715498647906       -1.87468809804842       -2.16813065977671
C            1.89688627937282       -2.19233360106029       -2.56348380259684
C            0.80537988152121       -1.62544923892661       -1.93110166460574
C            1.02206893051436       -0.73669200594232       -0.89919521347888
C            2.31950587938084       -0.41313717678168       -0.49700823814204
C            3.41050560202851       -0.98543762412633       -1.13549251176108
C            2.25858812596867        0.54844450558785        0.61658728758047
C            3.27549045787992        1.16587472612424        1.33086903003620
C            2.94068710959447        2.04904145025303        2.33827823675722
C            1.61295759457384        2.31751525584456        2.63327128267959
C            0.59490934442358        1.70616844127637        1.92434734331672
C            0.92285121643904        0.82320779957224        0.91704990102597
C            0.02493144662123        0.01677609342871       -0.02019143438356
C           -0.93103120475753        0.89444281373214       -0.82447960084300
C           -0.66324324741961        1.91228123508970       -1.70817030762000
C           -1.72045559482957        2.58257932343330       -2.33140273226092
C           -1.44210550039094        3.67030923729613       -3.29938302853662
C           -0.64062565174567        3.40683098168683       -4.41320528558814
C           -0.36021413731231        4.37230050249765       -5.34859046061612
C           -0.86483963351673        5.66824058956360       -5.21303382392373
C           -0.59133072102575        6.69327521345433       -6.17037809620534
C           -1.07699174669106        7.94559805314418       -6.01583649270511
C           -1.88104567778114        8.29278470590616       -4.88521459311550
C           -2.38602020837551        9.58073496801206       -4.69708340490939
C           -3.15422106227712        9.88349264389198       -3.59169595088917
C           -3.44007007382963        8.91989904453817       -2.64677965739099
C           -2.95976064892370        7.61640975215835       -2.78827857297655
C           -3.22694430784204        6.59399462900948       -1.82613674703288
C           -2.74728791400687        5.34010920044288       -1.98640197020766
C           -1.95897714354225        4.97683639124468       -3.12162700573497
C           -1.66618654308449        5.97323690713942       -4.08616413606440
C           -2.17205384983017        7.29671811903489       -3.92056263390444
C           -3.03612810031263        2.18902038265011       -2.04438849698670
C           -3.30648416240731        1.16624788668068       -1.16290463377147
C           -2.24715637107985        0.51173189133959       -0.54647080777463
C           -2.23733228519807       -0.60867014385155        0.40137378709831
C           -3.28225411659045       -1.34820042813788        0.94219039225842
C           -2.99080833385472       -2.39126645706992        1.79296513537526
C           -1.66770888347609       -2.72172438049754        2.12209250571720
C           -1.36157034474100       -3.86381744362881        3.01731931877068
C           -0.66405079646582       -3.63962718544119        4.20691741543543
C           -0.34109505570661       -4.66596641377161        5.06042097105426
C           -0.69396137771626       -5.98467411481346        4.76097921454724
C           -0.36736808558419       -7.07386663017941        5.62645884244540
C           -0.70540276818020       -8.34507034253965        5.31329144180900
C           -1.40088114980222       -8.64851725660452        4.10094797585217
C           -1.75473586489977       -9.95286760087813        3.75064813201968
C           -2.42052567203812      -10.21097926683849        2.57000531585146
C           -2.75101256910972       -9.18551824539979        1.70847895312814
C           -2.42034536568913       -7.86335037289883        2.01215083862226
C           -2.73759186056430       -6.77603657949935        1.14062354745173
C           -2.40468296946840       -5.50493620930555        1.45892039326933
C           -1.72859482180016       -5.18853257810249        2.67739510831665
C           -1.38974586356277       -6.24720955409164        3.55610715231027
C           -1.73987640378573       -7.58934309285307        3.22329392108869
C           -0.62615211846108       -1.96108264033751        1.58251718613369
C           -0.91521859833756       -0.92254320361493        0.73061097957835
H            4.02569299544831       -2.32740355636410       -2.67161831928314
H            1.74192001586914       -2.88886789165465       -3.37116676755677
H           -0.20087908100672       -1.86630437134403       -2.22654552838112
H            4.40858107347993       -0.73440635006665       -0.82215059098313
H            4.30330631666217        0.95292431052430        1.09504869402045
H            3.72096130988067        2.53527031390402        2.90073290835568
H            1.37063478233249        3.00983209120656        3.42289439814324
H           -0.43922898624928        1.90785175550820        2.14263963711305
H            0.35342148211132        2.19357561017842       -1.91289931147238
H           -0.24758430092390        2.41222174605236       -4.53729115371797
H            0.25413546183407        4.13744094956389       -6.20073033814428
H            0.01494689342369        6.44933239971646       -7.02561656781940
H           -0.86032048815167        8.70554816906058       -6.74654796986298
H           -2.16629052869565       10.34023289767644       -5.42752696967429
H           -3.53348903649180       10.88429761714247       -3.46414616970432
H           -4.03801608476499        9.16649644694941       -1.78637359634301
H           -3.81824694368867        6.84236932352125       -0.96178404501927
H           -2.94887951131475        4.59253618812400       -1.24014858177875
H           -3.84522611377202        2.69535863842767       -2.54208425736197
H           -4.31774108082472        0.86630674516402       -0.95161869486967
H           -4.29879476065512       -1.10520535081964        0.68752559474548
H           -3.78870613148394       -2.97220608958207        2.22252921015415
H           -0.38287235575915       -2.62995391826710        4.45307828150139
H            0.19272972941617       -4.46258909138169        5.97275578825848
H            0.15959983535969       -6.86329246510886        6.54104188261687
H           -0.45008065358384       -9.15344844183370        5.97640378914526
H           -1.49903962032186      -10.76028498901522        4.41498550804203
H           -2.68395800221700      -11.22512117845385        2.31726476948023
H           -3.26827984066400       -9.39715126010581        0.78853288379357
H           -3.24630643426931       -6.98848907307832        0.21622234521484
H           -2.64227906053725       -4.70490507980948        0.78072770583371
H            0.39573107077968       -2.19918095463295        1.81431581981456
