61
 energy: -11.876472284369 gnorm: 0.000797422405 xtb: 6.5.0 (97a52f5)
C            0.31252196371583       -0.42122482080929       -0.41280276431314
C            1.83902656053357       -0.36068512293527       -0.22173933188086
C            2.16658976306063        0.11783950870690        1.20413139364572
C            2.40728801295919       -1.77864078026829       -0.40240961984028
C            2.43957123800791        0.61757525667694       -1.23593285952054
C            2.04377364409809        1.93896777128360       -1.25034783108981
C            2.55968110092476        2.86711541025643       -2.15779607635250
C            3.49647078451840        2.49419898484150       -3.08485793570014
C            3.92114130418174        1.16773794739273       -3.09709883380278
C            3.40785188671707        0.22238011352596       -2.18527313043924
O            3.99656572575221       -1.01264495114523       -2.40967421784373
C            4.89124803212042       -0.87503907713383       -3.45948517243447
N            5.66722658316943       -1.82806502466296       -3.97920239145964
C            6.44091786417464       -1.41759827457391       -4.98600463309914
O            7.33757682003605       -2.18349236648224       -5.69128686442410
C            7.97889300121389       -1.38807257039005       -6.64122876427367
C            8.95358624242935       -2.07492920408823       -7.41196989252962
C            9.97747110479986       -1.64159680823815       -8.16681335767793
C           10.53469133771423       -0.41356591000708       -8.24902841812923
N           11.56271891722006       -0.03152700618663       -7.64658361266834
C           12.16584169739559        1.11801345919706       -7.81898718674914
C           11.89290798245524        2.05182746240380       -8.74530821629874
C           12.51662804726942        3.28917212166728       -8.95006730317700
C           13.54740038593732        3.91355318868561       -8.27620003139831
C           14.26218310647012        3.51401564753450       -7.18763816757581
C           14.20693469604870        2.39857558239820       -6.41385724783582
C           14.94218537649208        2.14100278564099       -5.32551952641532
C           15.86781784503730        2.93574698831920       -4.76999754309244
C           16.62992995853589        2.66083610877671       -3.62849174966533
C           16.60065895994205        1.53045784233980       -2.84295773159517
C           15.83097822443923        0.48053039513185       -3.03495588509460
C            8.35309783856123        1.36817389263024       -8.37379977884920
C            7.52309261815684        1.11038743697446       -7.37559389110611
C            7.42657055141991       -0.05862406613418       -6.58906800127762
C            6.47344242022028       -0.09926004832059       -5.50918089396295
C            5.66550823441802        0.88294528301329       -4.96471951821579
C            4.86672307022545        0.47182776369647       -3.91639774739823
H           -0.13894898468446       -1.13129392434351        0.27897798872533
H            0.06460081466100       -0.73318599955757       -1.42645860485944
H           -0.14763299795147        0.54994600471007       -0.23951505215786
H            1.76540529992436       -0.56962538883012        1.94784770943534
H            1.74386599344791        1.10204284564109        1.39827578623200
H            3.24409270147456        0.18170653251590        1.34977053245973
H            1.97496808321815       -2.47238930242503        0.31758379869268
H            3.48828746087917       -1.78012542885387       -0.26950175589774
H            2.19766049051961       -2.15257378596056       -1.40361063553307
H            1.30977299536059        2.26896774861943       -0.53617868854120
H            2.21584303601566        3.88786877800989       -2.12736579289958
H            3.90246330960290        3.19759125827325       -3.79020943536929
H            8.90398878796149       -3.14617846067417       -7.29281571835374
H           11.48841377574725       -7.81336875847036      -11.82124233405876
H           11.09645052645196        1.79685429700742       -9.42671356751880
H           12.11910685522513        3.85144964923190       -9.78347622200655
H           13.84179336511362        4.87915928184453       -8.65964500481016
H           17.35445271622318        7.66904260398642      -10.45285686114101
H           16.03709565429898        3.88453263626523       -5.25392296762281
H           17.32470123134710        3.43133002526914       -3.32889605390740
H           17.26372521299371        1.49134613713059       -1.99282655322544
H            9.16684969012744        0.72508070383488       -8.60668518314847
H            6.81767588949428        1.89105999433634       -7.14437086854482
H            5.66123519174190        1.89727763777406       -5.31558978133407
