50
 energy: -11.051633360467 gnorm: 0.000523651047 xtb: 6.5.0 (97a52f5)
C            3.21929218876314       -1.85128388980606       -2.11563320946238
C            1.93713378212412       -2.18537976137554       -2.52281121696397
C            0.83271475330211       -1.63532421884775       -1.89830014394051
C            1.02814851276237       -0.74732671517751       -0.86161539259033
C            2.31731568853866       -0.40837833755235       -0.44654205943353
C            3.42151516589110       -0.96322854631650       -1.07779346955970
C            2.23309664255846        0.54526768409734        0.67197551512611
C            3.23537366020364        1.15700961692886        1.41129042576824
C            2.88044292058285        2.02042996344802        2.42850003604906
C            1.54688845840377        2.27332634966297        2.71009796807522
C            0.54325527346320        1.66659237203645        1.97711802265383
C            0.89108734991101        0.80443331565188        0.95865480686528
C            0.01231872823798        0.00183704844275       -0.00019450184874
C           -0.92388726117978        0.88179019417720       -0.82759582084828
C           -0.64105291863581        1.92645912944094       -1.68191630095759
C           -1.68632084064611        2.56543975335407       -2.32375219842584
C           -2.99663294970948        2.16457498328020       -2.11353129714684
C           -3.28691652354514        1.11967532310863       -1.25921021790448
C           -2.24255473752346        0.47395711264177       -0.61184045953832
C           -2.25562445334314       -0.64847233519692        0.33808555838986
C           -3.31234509076496       -1.38943953623283        0.84908163837037
C           -3.04496919797859       -2.40943215027381        1.73623834493428
C           -1.73613644906365       -2.71199045583652        2.13437250889034
C           -1.46912010872356       -3.80868273293982        3.08890883854099
C           -0.47976450841938       -3.71433074362965        4.05708558840948
C           -0.26954046580885       -4.76464170704570        4.91701666521678
N           -0.94792564497881       -5.90148469083435        4.90271864167135
C           -1.88830465382641       -5.98444061840858        3.97461652321418
C           -2.18588361200019       -4.99665266226494        3.06762541666041
C           -0.68207204513829       -1.95841054633342        1.61196755969320
C           -0.94590826750474       -0.94164236574031        0.72407555988200
H            4.06824351643691       -2.28971109343886       -2.61416540223804
H            1.79841042687404       -2.88113321681497       -3.33402064480089
H           -0.16743300942915       -1.88713143275970       -2.20465848707562
H            4.41329025663897       -0.69903110423286       -0.75568201267001
H            4.26777815665252        0.95426388665546        1.18704162161490
H            3.64908811377116        2.50263468208908        3.00999197399338
H            1.28878870614660        2.94913368611294        3.50887352795053
H           -0.49515875487160        1.85417315475176        2.18710610262425
H            0.37996836814978        2.22819743614821       -1.83713539557227
H           -1.47896773258973        3.38296503008241       -2.99458172428289
H           -3.79807370755870        2.67421052267848       -2.62289039647663
H           -4.30097988954156        0.80293459286849       -1.09037836285556
H           -4.32022622985930       -1.16190688202938        0.54983098464800
H           -3.85734265881240       -2.98240184235907        2.14828904381770
H            0.10509011770174       -2.81428936193519        4.13723966440124
H            0.50042021836906       -4.67757936404371        5.66914194384085
H           -2.44821792550440       -6.90745205855713        3.94404334614489
H           -2.95627789377401       -5.14309174705211        2.33043467705609
H            0.33360652525076       -2.17741572062613        1.88515621008562
