40
 energy: -8.826094016944 gnorm: 0.000701398263 xtb: 6.5.0 (97a52f5)
C           -2.71235565903290       -1.27925827202090       -0.40308807540431
C           -3.32081993095209       -0.05299589033999       -0.18526854911733
C           -2.56214845600465        1.08546133654889        0.01604833295466
C           -1.18745955289694        0.98156389785035       -0.00442953287247
C           -0.56983759200563       -0.25156004706830       -0.22243247595281
C           -1.33630235702077       -1.39049143709244       -0.42378753220909
C            0.89118251058401       -0.07394500619092       -0.20108478616137
C            1.91396269313998       -0.99600970052985       -0.37091627408723
C            3.22197020456607       -0.55842256465136       -0.30812077311932
C            3.51215582310894        0.77754770774273       -0.07925001010946
C            2.49718693528273        1.70116200477231        0.09100869853680
C            1.18876041056211        1.27086458304108        0.02836913450464
C           -0.11421535870765        2.04920316473259        0.19300785073349
C           -0.21589322729642        2.73416059239315        1.55403273338437
C           -0.16109968484669        2.20380876134552        2.82588824998516
C           -0.27577570408269        3.05560500035127        3.90936571792244
C           -0.44296497097710        4.41906212439224        3.72299986912294
C           -0.49798107284668        4.95568519640771        2.45201828365324
C           -0.38348407393600        4.10537707648000        1.36214301951894
C           -0.40042211870249        4.39052852156550       -0.07995439759124
C           -0.53805072183760        5.56714675411527       -0.78750581228131
C           -0.50324752928263        5.43059842674772       -2.16190008057691
N           -0.34565672196686        4.22983077655111       -2.70304887774495
C           -0.21714415877375        3.14470117465813       -2.12135388662676
C           -0.24295416366040        3.20764268227048       -0.79817048186491
H           -3.31966155083353       -2.15573943387646       -0.55943943269465
H           -4.39630127099302        0.01493623304894       -0.17322403550552
H           -3.02296788198102        2.04297415689830        0.18412873432960
H           -0.85601833254934       -2.33782105142636       -0.59458246253789
H            1.68005971045917       -2.03085444475374       -0.54877454887884
H            4.02613623189126       -1.26393949782750       -0.43848561018293
H            4.53916396012908        1.10091505530775       -0.03353645083277
H            2.70955616827780        2.74071399500943        0.26907360089410
H           -0.03016641398753        1.14404369035483        2.95800311102809
H           -0.23422428502405        2.65436944221975        4.90865557824642
H           -0.52996696727714        5.06776204167374        4.57916143483705
H           -0.62616198973710        6.01249085223847        2.29694839171662
H           -0.66269186800632        6.51525523883751       -0.29510039747956
H           -0.60417172332547        6.30118113827837       -2.79144707392141
H            0.09143069054949        0.84069571997987       -2.71212118357328
