40
 energy: -8.611506224336 gnorm: 0.000930059587 xtb: 6.5.0 (97a52f5)
C           -2.74926741226262       -1.04330429930888       -0.56527704223923
C           -3.33880527816032        0.17274075323256       -0.25638880737802
C           -2.56248145658044        1.27985093356091        0.03357976052781
C           -1.18949760844187        1.15493381543571        0.00925830853873
C           -0.59091040426976       -0.06750788378645       -0.30207158853592
C           -1.37512345100601       -1.17512004170653       -0.59104758470669
C            0.87254308935452        0.08117174044305       -0.25156080964280
C            1.88065836965007       -0.84176319005115       -0.49036574667196
C            3.19541117166873       -0.43553720633619       -0.37827530893484
C            3.50672240185033        0.87070460614705       -0.03406944613098
C            2.50632052407159        1.79486989824444        0.20562760748801
C            1.19117580213893        1.39559304850406        0.09543113533575
C           -0.10010595037382        2.18028800957445        0.31337988371638
C           -0.21147477403072        2.74495322045519        1.72829444866903
C           -0.18783073097529        2.10352335696829        2.94886365144100
C           -0.31145423423579        2.85717377221889        4.10184788826751
C           -0.45699579399334        4.23416173302540        4.03408750795228
C           -0.48107468432899        4.88211924184372        2.81503001589556
C           -0.35711153911544        4.13061178929988        1.65585060888976
C           -0.34557153535045        4.54057315771910        0.24431176741182
C           -0.44785328558043        5.78239824939994       -0.37094725034244
N           -0.38783969690627        5.80874137391959       -1.69350398784697
C           -0.24071731392983        4.70938135300968       -2.36624568062061
C           -0.13581685834691        3.49225575738712       -1.89181949467725
C           -0.19325016590654        3.42410386641376       -0.57003472549746
H           -3.37021111377718       -1.89574431023769       -0.78731588974378
H           -4.41307263592154        0.25703218175889       -0.24052092448096
H           -3.00804808953554        2.22830806757605        0.27765917837873
H           -0.90898786118920       -2.11539400511932       -0.82769987484998
H            1.62991754027498       -1.85296509383413       -0.75873292352861
H            3.98835869936530       -1.14207255681906       -0.56161342642280
H            4.53875178114008        1.17011097812765        0.04746745586723
H            2.73507007814143        2.81173647471228        0.47285940421384
H           -0.07568810720217        1.03406306292199        2.98838940323918
H           -0.29391253940960        2.36834951509012        5.06204793811833
H           -0.55219129004306        4.80552263583071        4.94287912979158
H           -0.59349777332916        5.95016562659686        2.75228574978281
H           -0.56996095673922        6.67722974947025        0.21691800974325
H            0.65017151437526        4.28599875956435       -7.13093410671274
H            0.45164156888149       -0.80209814128866       -3.40465423428352
