67
 energy: -15.028857086399 gnorm: 0.000202701062 xtb: 6.5.0 (97a52f5)
C           -4.52911443587607        1.41240743182674        0.32456568479626
C           -4.28675002667309        2.65201687600162        0.89535857370906
C           -3.01677685092936        3.19913903173754        0.88364312963094
C           -1.99152340223139        2.48795678718337        0.29721896392542
C           -2.23189369899425        1.23991305747839       -0.28206403096331
C           -3.50837404757329        0.69736601453471       -0.26887847880883
C           -0.98065035922763        0.71732622363629       -0.85400417372149
C           -0.72311612319193       -0.46586142829852       -1.53105661675394
C            0.55792055043191       -0.70796303850717       -1.98549936668730
C            1.57131128384063        0.21329018999599       -1.77244592220940
C            1.32068965040044        1.39431356605943       -1.09860923228956
C            0.04427233703144        1.63986235008934       -0.63868426507627
C           -0.52347592808268        2.85480054177427        0.09211398974243
C            0.23465153804265        3.20019941438750        1.37769563730987
C            0.42055086877093        2.46007129155726        2.52538804561550
C            1.16933288402208        3.00077974390785        3.55541280880340
C            1.72732017826807        4.26515304873122        3.44034999750140
C            1.54873084333163        5.01409814515022        2.29498214030468
C            0.79986689970972        4.47782295917317        1.25929466252049
C            0.44580956886612        5.05307234867239       -0.04354528817382
O            0.62904817685527        6.18602997171988       -0.81107492480342
C           -0.07480079895980        5.95194890324847       -1.97554633500982
C           -0.68924198959091        4.70014436687926       -1.93286371373340
C           -0.35215157794597        4.12859260058170       -0.71807871986026
C           -1.51112898833925        4.44797700768909       -3.18557209389117
C           -2.99201274190882        4.26329066788697       -2.86081925215375
C           -3.87633317970245        5.11029869958551       -2.22706420976943
C           -5.17500146220436        4.68429373099269       -2.01827028896029
C           -5.58224743939679        3.42688533368912       -2.43553333553547
C           -4.70023398905748        2.57261857817784       -3.06683230343011
C           -3.39593133788213        2.99473130153267       -3.27963419610392
C           -2.25508680703772        2.30278405203630       -3.90054124319979
C           -2.16400914931707        1.02841438872600       -4.44055616864197
C           -0.95191498669764        0.60611301921038       -4.94834881567302
C            0.15700168320043        1.43711493871736       -4.91791290797896
C            0.07304099200749        2.70796681698058       -4.37920755297080
C           -1.13601319446312        3.13832523805115       -3.87539376281751
C           -1.22196901075930        5.70897666460156       -4.00595437942729
C           -1.65278510029225        6.06784071993446       -5.26501140905111
C           -1.25851917051610        7.28830281594419       -5.78366654692318
C           -0.44472586565138        8.14115220120248       -5.05316882255856
C           -0.00834080511988        7.79210628452434       -3.79124760681913
C           -0.40000070119783        6.57072387546399       -3.26595294170843
H           -5.52669357762155        1.00491454754527        0.33738598737913
H           -5.09793360603067        3.19942247896213        1.34656600493551
H           -2.81994939483975        4.16637045553711        1.31171645560363
H           -3.68919410466125       -0.26053012148761       -0.72380720168971
H           -1.51730022573475       -1.17129969571639       -1.70055363470810
H            0.77069189395651       -1.62084086103791       -2.51722000507032
H            2.56402004050450        0.01018521296222       -2.13942197076532
H            2.09679915563642        2.12127446254380       -0.93479537041216
H           -0.01427194174976        1.47907941955273        2.60448769569089
H            1.32061437581449        2.43150516295008        4.45783897373557
H            2.30693246941590        4.66828229848002        4.25462281339977
H            1.97457424807843        5.99694992301477        2.19381579194280
H           -3.54566332528194        6.08038593637675       -1.89964011057314
H           -5.87540157469762        5.33544565701161       -1.52141420343493
H           -6.59718353488070        3.10995432129451       -2.26004906486564
H           -5.00574389180446        1.59153162516693       -3.38504820824079
H           -3.02722938912236        0.38654922066614       -4.45007723211002
H           -0.86573685535500       -0.38358910871004       -5.36597109804417
H            1.09719048800237        1.08676544660460       -5.31103943809402
H            0.93067095219536        3.35626834241732       -4.33806790392630
H           -2.28589426735554        5.40054071420731       -5.82318950741863
H           -1.58878051306381        7.57921756914659       -6.76736929385885
H           -0.14863503145602        9.08733625062883       -5.47572473753855
H            0.62527332396837        8.44359400962924       -3.21531947007135
