67
 energy: -15.158137267736 gnorm: 0.000183610475 xtb: 6.5.0 (97a52f5)
C           -4.54689891079536        1.50560107787107        0.17925908123376
C           -4.31624749128053        2.74978846173224        0.74504402204185
C           -3.04807845995780        3.30106911983203        0.74700425380807
C           -2.01379302338893        2.59088219173507        0.17585466773443
C           -2.24149027364846        1.33694223921376       -0.39567979542337
C           -3.51614163159934        0.79014650285263       -0.39612170326268
C           -0.97679711051733        0.80643255162700       -0.92922136971898
C           -0.70026097148137       -0.38868944458391       -1.57712867954623
C            0.59440574642664       -0.64110708533810       -1.98514712731974
C            1.60280203237656        0.28145612649554       -1.75455951188365
C            1.33376242034410        1.47318911944069       -1.10730761194186
C            0.04303132711088        1.72994749286627       -0.69621775451075
C           -0.53000749053825        2.92741950493384        0.05761917935150
C            0.15018652962052        3.12189554038509        1.41769714479883
C            0.21627674698795        2.28491154052893        2.51109182787836
C            0.91844095659169        2.70028538157597        3.62866573288010
C            1.54813821448509        3.93585217564859        3.65371156481775
C            1.48878267477337        4.77993297695674        2.56333124046716
C            0.78664667847018        4.36587061369844        1.44252371835324
C            0.54395057498808        5.03909372150281        0.17703296060083
S            0.83825116196952        6.41957892383291       -0.71416867267666
C           -0.00166824781807        6.10044354739711       -2.12101495465297
C           -0.56046208100536        4.84867188688047       -1.90939625532745
C           -0.24998301802055        4.25987146238071       -0.65152460398931
C           -1.41376310882895        4.48517902749939       -3.13277840239954
C           -2.89260061111882        4.32583046279836       -2.78880720098460
C           -3.76493633904598        5.20739116509588       -2.18652285426287
C           -5.08324472814080        4.82812914843452       -2.01419741041986
C           -5.52253003366909        3.58466941563264       -2.44078705425912
C           -4.65306546037916        2.69707922232126       -3.04298195940999
C           -3.32845806646200        3.07113807579005       -3.21643086723912
C           -2.19684294581644        2.34267110963424       -3.81166285034507
C           -2.13749600980631        1.07135978259613       -4.36298591851950
C           -0.93242544496261        0.61781204660397       -4.86043968687845
C            0.20043489668001        1.41483500306738       -4.80860529287224
C            0.14810232960003        2.68242551873435       -4.25845111609904
C           -1.05269075284767        3.14227997860520       -3.76151017447326
C           -1.17388825568888        5.67179251101473       -4.07349658930571
C           -1.64302031545614        5.91073391964072       -5.34757468837603
C           -1.28840993281089        7.08938765849798       -5.97975288380499
C           -0.47646170682454        8.01892038910725       -5.34691028275472
C           -0.00294714539666        7.78899868367061       -4.07105237104745
C           -0.35679450179158        6.60925326921761       -3.43575172660241
H           -5.54298437720631        1.09433302891356        0.18264442915200
H           -5.13466950794968        3.29620522145761        1.18415598581656
H           -2.85766379187780        4.26660300870299        1.18176645297294
H           -3.68687055273566       -0.17312174484801       -0.84349761823600
H           -1.48983295518488       -1.09634909435029       -1.75837104329591
H            0.82218633714526       -1.56359223419751       -2.49353389774718
H            2.60688665087788        0.06918168759267       -2.08336493657002
H            2.10803820911653        2.19643579970542       -0.91994337914281
H           -0.27412574118407        1.32769450372302        2.48146782400038
H            0.97621813977170        2.05508393795703        4.48989442336854
H            2.08920931739244        4.24108568846375        4.53435008806055
H            1.96927981428355        5.74249765751376        2.56857741455589
H           -3.41192422936231        6.17063753570893       -1.86222868251758
H           -5.77497174674542        5.50657284983603       -1.54237745001624
H           -6.55317380205708        3.30513705297205       -2.29608397096491
H           -4.98443307520379        1.72747850152047       -3.37032083129159
H           -3.02037222792558        0.45753003472981       -4.39292290754167
H           -0.87109197195913       -0.36946070263787       -5.28803375935221
H            1.13369608831933        1.04136098432954       -5.19683784538419
H            1.02132222216629        3.30913183849967       -4.21139546532854
H           -2.27458623557818        5.18488131835994       -5.82914579002879
H           -1.64869474309839        7.28709928560488       -6.97594664368540
H           -0.21142108209430        8.93060916373308       -5.85685480549140
H            0.62956104026029        8.49895266015813       -3.56776561520194
