108
 energy: -21.124523718554 gnorm: 0.000746104979 xtb: 6.5.0 (97a52f5)
C           -2.64497658028341       -1.49001957173367        0.22891124568260
C           -3.19368412252228       -0.21696180247049        0.23620924042161
C           -2.38335511829868        0.90121483534702        0.15954813515878
C           -1.01727971546507        0.72999818840009        0.07523012720043
C           -0.46058355105498       -0.55033645242418        0.06590094021621
C           -1.27836490949621       -1.66874050452913        0.14421085760792
C            1.00234024085051       -0.44192360729252       -0.03402405930901
C            1.97805109696107       -1.42784357462450       -0.07348424301504
C            3.30294905332776       -1.05045740076550       -0.16799970579308
C            3.65585618531512        0.28909330987591       -0.22264255983868
C            2.68762127675372        1.27596802899017       -0.18393189834181
C            1.36220195892964        0.90596707340206       -0.08964710702307
C            0.10068821478318        1.77631014341653       -0.02074221669354
C            0.12364223508804        2.63462617040384        1.24203742631518
C            0.28469766809854        2.01979070235402        2.47209546732091
C            0.32201119594551        2.75198211548043        3.64087569911960
C            0.19977864402454        4.12437334208330        3.59065333694226
C            0.03767537663049        4.75152398390591        2.37739386895408
C           -0.00947878688424        4.02664575756151        1.18751597470096
N           -0.17387988290897        4.70378851554401       -0.05575921348896
C           -0.33727918523455        6.14023188832557       -0.06380499997459
C            0.68925036246900        6.97475270966052       -0.50886653041978
C            0.54493310832859        8.33964562688081       -0.47642277824223
C           -0.62878950089203        8.92284411999921        0.00071610483912
C           -0.77632185212720       10.38360374160855        0.06096535744557
N            0.24540651848406       11.12213978920530       -0.35147546429310
C            0.05040889961860       12.41754582579116       -0.25263571350940
C            1.20557202077266       13.31841681277887       -0.70262119287014
C            1.49758014491177       13.08853275133847       -2.21339650098294
C            2.67994470262726       13.97775743958175       -2.67566576661954
C            3.94438389693714       13.62196450496429       -1.85104499794043
C            3.67006714957271       13.86847575016758       -0.34466508805812
C            3.30959891475435       15.36028149729788       -0.12290997700164
C            2.04446095576816       15.71677715772387       -0.94556587547244
C            2.32103745825972       15.46959229930677       -2.45118947906488
C            0.86483360840964       14.82287736113781       -0.48694639656302
C            2.48624207098870       12.97973980633154        0.11390638428304
N           -1.03847824711571       13.00556642501958        0.19921440682471
C           -1.98456278146625       12.17075835424917        0.57659222911201
C           -3.26902841243960       12.80567080913395        1.11968661016084
C           -3.89754343876692       13.73024631113290        0.03737204202270
C           -5.18367004315642       14.40177364110232        0.58214121548459
C           -4.83195728632870       15.24689034627177        1.83405355002990
C           -4.22398157240043       14.33003886399597        2.92723697251072
C           -5.25219570752678       13.23516778914085        3.31294519743583
C           -5.60326997203972       12.38826685183971        2.06233802387878
C           -6.21076623049087       13.30683025086486        0.97068458102189
C           -4.31545473900587       11.72240123240654        1.51480740468225
C           -2.93948184284732       13.65844887495569        2.37882005936538
N           -1.91962529082843       10.85976569597982        0.53581306537178
C           -1.65676297195809        8.08723412413552        0.43615556552229
C           -1.51608088911613        6.72263017536962        0.40390527361729
C           -0.18836811301825        3.98092846545127       -1.28379635185404
C           -0.35963810335928        4.65687866993777       -2.49082465212311
C           -0.38062902144893        3.98323518154170       -3.68984445332104
C           -0.23374131713459        2.61238354630496       -3.70801846693681
C           -0.07268320529719        1.92692955577299       -2.52155785636649
C           -0.05064359685212        2.58814420281957       -1.30535846540959
H           -3.29179811784771       -2.35002396062408        0.29026777321547
H           -4.26262665075685       -0.09637307474635        0.30301309515534
H           -2.79715031954611        1.89443863688964        0.16322378017587
H           -0.84412623019501       -2.65305696553650        0.13763803041463
H            1.69556300986816       -2.46500204896912       -0.02876296559702
H            4.07092443748466       -1.80606703342612       -0.19925456921132
H            4.69503976897163        0.56535287179213       -0.29598783291223
H            2.94869285524888        2.31907589607388       -0.22361837917651
H            0.38368526385628        0.94853378933164        2.50595939784418
H            0.44878900580131        2.25344721188252        4.58799620984808
H            0.23131035131575        4.70337356397166        4.49933429599727
H           -0.05064722022317        5.82248224213854        2.33831055652445
H            1.60048310344706        6.52870225735299       -0.86760120315052
H            1.34080116247121        8.98014484924436       -0.81427567909270
H            0.59678485946688       13.31029147352674       -2.79460974225590
H            1.72277677623137       12.03061869760442       -2.38130076009526
H            2.87633655199723       13.80197813561807       -3.74815721432578
H            4.79553986826441       14.22691740000901       -2.18413209583710
H            4.22148384716216       12.57465204863240       -2.01782773735617
H            4.57081253544314       13.61450724821385        0.24174772195962
H            4.14768125814800       16.00024229468238       -0.42202660709520
H            3.13463277307759       15.55257777419447        0.94195700611258
H            1.78630941089103       16.77866679905372       -0.78602845917840
H            3.14048493822405       16.11126334957297       -2.79497171985210
H            1.44155692105213       15.74063274641597       -3.04659117003157
H           -0.04557985998740       15.07045632348751       -1.04181871347176
H            0.63828685147862       14.99447639744569        0.57004310369516
H            2.28480157707509       13.12393312075776        1.18021587706125
H            2.72788706484379       11.92007980694772       -0.01559408715558
H           -4.11854427627548       13.14154271860214       -0.85870191973224
H           -3.16484515450070       14.48654790626099       -0.26166065466901
H           -5.61638150162334       15.05548215058944       -0.19574364877401
H           -5.72910239687686       15.74720829517677        2.21646537686213
H           -4.12238183679680       16.03880041965468        1.56785816750754
H           -3.97365768748084       14.93265918522718        3.81822242233304
H           -6.15803378700018       13.69525830092509        3.72426105677677
H           -4.84261564656779       12.59312243023131        4.10131287909672
H           -6.33399955901288       11.60722584727752        2.33755141140124
H           -7.13513108201057       13.76834828215224        1.33667555433070
H           -6.48471164171428       12.71580585886214        0.08913074128576
H           -4.54284791398133       11.10292909241428        0.64165900937428
H           -3.87902755457777       11.05371706591517        2.26330579819748
H           -2.48238978072484       13.01853900484946        3.14041626266088
H           -2.19081957913779       14.41339264774647        2.11842142165060
H           -2.56469056917241        8.53225002123775        0.80402383855527
H           -2.31090334496287        6.08157884105321        0.74368586700087
H           -0.47949467291283        5.72540798535754       -2.47600723231624
H           -0.51273107217471        4.52439942911941       -4.61263336004787
H           -0.24923869797845        2.07787981305527       -4.64380768031733
H            0.03403499139840        0.85589515035246       -2.53017757610711
