70
 energy: -15.389208522029 gnorm: 0.000179365831 xtb: 6.5.0 (97a52f5)
C           -4.29005600165250        0.20311376966862       -0.75825538813662
C           -4.38889268390763        1.45119147543137       -0.16860851685846
C           -3.24755861812706        2.13448205089669        0.20666205170155
C           -2.01941095551097        1.55918557590856       -0.01301100248947
C           -1.89345261797433        0.29944964001551       -0.60743733553444
C           -3.05638598655681       -0.37539018312648       -0.97954796333891
C           -0.49319791207182       -0.22088482822584       -0.79704107290790
C           -0.15967123477157       -1.44862532936645       -1.37020033052257
C            1.16585196144886       -1.81551054816494       -1.49259574844675
C            2.17471649487153       -0.97673039454258       -1.05231096071751
C            1.86303036527673        0.24293036958256       -0.48238775469301
C            0.54408334322401        0.60742350181649       -0.36021311419525
Si          -0.28737158685644        2.10318290341004        0.30998452171374
C            0.19233625676195        2.52006504091147        2.03851465790868
C            0.03069289708299        1.88456426769033        3.24568458621586
C            0.53131758359907        2.47506280179233        4.39082111418469
C            1.18696465965472        3.69175452937368        4.31655412804464
C            1.35076306546004        4.33055617713785        3.10390754851356
C            0.85247839514180        3.74874792957067        1.93751402881921
C            0.95282610781466        4.34725167790835        0.56198577557952
C            1.66752950352758        5.50392239189993        0.24091696406780
C            1.66608464322410        5.94911619357521       -1.05816897759988
C            0.95924520618177        5.29680979383926       -2.07865774306737
C            0.26312094464773        4.12760785655487       -1.76200124923669
C            0.27780327787314        3.67314641124454       -0.46603675480466
C            1.02489560728835        5.91959128326337       -3.44552877161018
C            0.30388560516567        5.48784436851056       -4.55952555514756
C            0.43684989989590        6.14821077256123       -5.76438068641041
C            1.28011466468531        7.23943324099051       -5.88223272030168
C            2.00159233945797        7.68122298821101       -4.78908336864767
C            1.86932516890979        7.02502788109108       -3.58949832984057
Si           2.62828338220589        7.25433079609879       -1.92728575637387
C            4.44643575117303        6.98852508463382       -1.88215892046441
C            5.25199949410156        5.94434982671406       -2.26709165709822
C            6.61832898538570        6.04577891177122       -2.08696768827164
C            7.16184763115190        7.18761288056517       -1.52488516638058
C            6.35201650800037        8.23694155392129       -1.13815878043838
C            4.97018419312716        8.15233100858637       -1.31273978541452
C            3.97843771810720        9.22041450328907       -0.93446461828039
C            4.30364248621707       10.44707045179137       -0.35480726808284
C            3.30628359603225       11.35076813177249       -0.04791305234768
C            1.98012145294288       11.05401143877427       -0.30929031408400
C            1.63925097214369        9.84378277728012       -0.88328127559401
C            2.63131565708605        8.94393392682275       -1.18922282571536
H           -5.18526137113538       -0.32287244797563       -1.04771663193164
H           -5.35805627367122        1.89214449658458       -0.00165715765507
H           -3.30530355422336        3.10662344114122        0.66558313413811
H           -2.98671460021762       -1.34547691341305       -1.43859768402884
H           -0.93791265865972       -2.10554495390523       -1.71563566443269
H            1.41783449544517       -2.76505519018979       -1.93604607013624
H            3.20571787238898       -1.27412301688512       -1.15371670165289
H            2.63380722352397        0.90940765184983       -0.13505038065187
H           -0.48199309023651        0.93874791159726        3.28479457077264
H            0.40941215105023        1.98655398539965        5.34376589239375
H            1.57241928989985        4.14571867163099        5.21499190051225
H            1.85570282240748        5.27884936184586        3.05290017563808
H            2.22821265517302        6.03299716470376        0.98902841724207
H           -0.26308026644797        3.57576630258793       -2.51865082059682
H           -0.35742557544352        4.64410890237799       -4.47230824223251
H           -0.12305633389308        5.81163141477749       -6.62175533222584
H            1.37466695303553        7.74691944742870       -6.82834822800212
H            2.66215581889191        8.52813465200092       -4.86244333181756
H            4.81082569141512        5.06365543423289       -2.70141698365686
H            7.26091774356118        5.23338002927353       -2.38485970917336
H            8.22862823444370        7.25834696584721       -1.38785816303932
H            6.78184425434077        9.12097059684913       -0.70201323986532
H            5.33224297926834       10.68392328991245       -0.14853207288338
H            3.56325086360025       12.29682043502895        0.40018164451671
H            1.21057886401515       11.76778880523507       -0.06444884302013
H            0.61276759003758        9.59605866068887       -1.09269540186583
