106
 energy: -20.963720762074 gnorm: 0.000532832765 xtb: 6.5.0 (97a52f5)
C            0.91844575722234       -0.74806594832983       -0.25912642846146
C            2.43282350285453       -0.58878401274345       -0.03287515873675
C            2.71938428950780       -0.35832357473915        1.46052234901745
C            3.09007095741990       -1.92522127756159       -0.44606464197348
C            2.99340715255252        0.58772623025537       -0.85745735970969
C            4.23352466216484        0.47023742625283       -1.46989537472067
C            4.77069665960115        1.48216862559790       -2.23986286442263
C            4.07464331703997        2.65662558834565       -2.41433022345820
C            2.85595517549499        2.81555131335663       -1.80311754986575
C            2.30419570765888        1.80939580193649       -1.01030687120707
N            1.05317448907914        2.10838071605356       -0.34916720131719
C           -0.10280233782249        2.37458667782703       -1.15516341850488
C           -1.09621708512663        3.25433576489133       -0.73299090548709
C           -2.19251855104729        3.51145747904538       -1.52519685245942
C           -2.31585895022146        2.89994215626345       -2.75704714029358
C           -1.33360297238760        2.03494367221127       -3.19662501341406
C           -0.23632971471558        1.77768689873565       -2.40621402565389
C            1.07401932800786        2.45940857589527        1.04336028968353
C            0.01503307805033        2.12778106482360        1.88709485297372
C            0.08842802064274        2.39171278594719        3.23694922935349
C            1.21153857796909        2.99031513516121        3.76127910902705
S            1.32637256885225        3.27979159426683        5.52880056297951
O            2.28891003425473        4.41678351849018        5.80728392731259
O           -0.05904819033930        3.30962818308049        6.14208216883668
C            2.11934897942832        1.70793586863726        5.88349547061870
C            1.35790147329936        0.61829520246572        6.23903209134886
C            1.97076166459878       -0.59536438194943        6.48681884384533
C            3.33752389588993       -0.70595544748854        6.37536681489430
S            4.13627314642748       -2.28053380035263        6.70018012527408
O            3.14656934688795       -3.25172698317958        7.31308435428685
O            4.91666925442012       -2.69015068988687        5.46655264660154
C            5.25204930131680       -1.69961969423083        7.97936475874941
C            6.61078591255281       -1.70467938702847        7.76034866675364
C            7.46723767465211       -1.23736011518655        8.73258608059940
C            6.96847173974670       -0.75345311962029        9.94079658616341
N            7.84871693746478       -0.26691362853931       10.96601552005738
C            8.91633886735984        0.63543279150393       10.64091757195804
C            9.93573121756922        0.87279445383875       11.55956028329504
C           10.95535825304449        1.75146598133328       11.27084672129030
C           10.97353582755564        2.41765501795199       10.06163451680779
C            9.96297109620693        2.20552113828244        9.14506334441214
C            8.94310687936902        1.32627874248304        9.43190410264025
C            7.43342529913741       -0.36189105289196       12.34781647303877
C            6.91419890119265        0.79283821427212       12.93289887799356
C            6.43322732252529        0.78832971426535       14.21845992284780
C            6.46072393458747       -0.37944971390633       14.94639190468090
C            6.98439677403959       -1.52825003977275       14.38810909063567
C            7.49939516352986       -1.55349552526209       13.09935326695394
C            8.08773429661482       -2.86093945749157       12.53289648779656
C            8.50387411327042       -3.82489899567593       13.66686683390805
C            7.03182211096211       -3.56710123141811       11.66630329700200
C            9.35009199138984       -2.58247631663062       11.69674562975083
C            5.59056352786644       -0.76815660641669       10.14696742000685
C            4.74045687705411       -1.23796770147366        9.17102168808965
C            4.09941964871120        0.38476422064063        6.02289514402339
C            3.48692307804708        1.59858434367841        5.77823009465201
C            2.25798385567428        3.34594957042619        2.94099433957390
C            2.19345348850672        3.08228523987395        1.59123236939803
H            0.53075341615327       -1.60565268748177        0.28950474741125
H            0.70034155998061       -0.89876566714528       -1.31537231820326
H            0.37164360044418        0.12783260181400        0.07752008687501
H            2.37442782640903       -1.20140554263576        2.05778992345948
H            2.21786265455939        0.53279527330491        1.82707156856433
H            3.78753877600869       -0.23568217067038        1.63454125657201
H            2.60754856802704       -2.76305895059335        0.05579883487068
H            4.14354124653711       -1.95469917177847       -0.17279209688709
H            3.00365616403988       -2.08637749038993       -1.51982789543704
H            4.80368082558700       -0.43283720572424       -1.34892307956439
H            5.73377207792761        1.35270760220246       -2.70591625048840
H            4.48792908764709        3.44870831680796       -3.01714134616972
H            2.30922838981006        3.73567194536041       -1.91407027673899
H           -0.98819777867904        3.75064763547147        0.21464994130492
H           -2.95394570083604        4.19394511588776       -1.18494884719029
H           -3.17452934492316        3.10144527090717       -3.37620917205893
H           -1.42496691925079        1.56209167062460       -4.16066725334979
H            0.53531496071319        1.11227559341317       -2.75031238496540
H           -0.85085778082719        1.63917325686257        1.47641562149642
H           -0.72099771473303        2.12352170211789        3.89482633622246
H            0.28874462643708        0.72263070580749        6.31861123516551
H            1.39180139396201       -1.45928414063519        6.76759243107281
H            6.99067452627214       -2.07221720872790        6.82199271263268
H            8.53054790951010       -1.24604641207046        8.56954429723674
H            9.91205019839941        0.36220409775054       12.50577080300247
H           11.73906256658396        1.92156493945798       11.99067343979618
H           11.77148632050547        3.10588253436839        9.83600211736532
H            9.97047143727234        2.73237284808216        8.20499566621170
H            8.14295650182616        1.18245877305054        8.72839136304320
H            6.88388756794432        1.69376898657400       12.34534980021633
H            6.02965510729610        1.68923545843580       14.65093922710398
H            6.07566325437984       -0.39543930703679       15.95286431007912
H            6.98798813131020       -2.42509375588199       14.98055019391084
H            7.63897133695544       -4.19605443897806       14.21420045223005
H            9.17589207527206       -3.33298579351881       14.36896242150489
H            9.02257845945975       -4.69374127211976       13.26333587002267
H            6.12726341466373       -3.76105165251454       12.24119676367054
H            7.40687662829172       -4.51959633999776       11.29406555264772
H            6.75720283203403       -2.96134046936117       10.80711822609421
H           10.10117730498604       -2.06622369289735       12.29259861493065
H            9.12522913018635       -1.96907042433761       10.82887746313715
H            9.78941961416841       -3.51112400208002       11.33449582150427
H            5.19924546601675       -0.40197928906653       11.07916305378382
H            3.67472030350146       -1.24451309704158        9.32718299334656
H            5.16875682217715        0.28303244967239        5.94152600746628
H            4.06832900979555        2.46301881937943        5.50415211814437
H            3.12632787435885        3.81894625831274        3.36771412459509
H            3.01349894456398        3.34157732083312        0.94577272463076
