47
 energy: -10.350649782174 gnorm: 0.000896137954 xtb: 6.5.0 (97a52f5)
C           -4.21228571364361       -0.02964583043492        1.10728964349900
C           -4.44145891330136       -1.26122816592557        0.51218181098868
C           -3.39076191162445       -2.02274347770247        0.03257165029787
C           -2.10752569593929       -1.53451923168609        0.15427312216076
C           -1.87190575807977       -0.29220536876153        0.75454004033360
C           -2.93030469827135        0.46617357280094        1.23439624607290
C           -0.43434857468015       -0.02444057068207        0.75643773140229
S            0.68183060206140        1.21964444177055        1.27654266133636
C            2.06805667153047        0.30394914214007        0.69423484603066
C            3.41826732542288        0.63170627635505        0.73172843584474
C            4.33861589975710       -0.24559415080963        0.20978146016498
C            3.93295096635088       -1.45686624768565       -0.35464174791762
C            2.60593949522941       -1.79598626517340       -0.40010214137962
C            1.65773275639472       -0.90822682236361        0.12791663953867
C            0.22726172900940       -1.06521882395057        0.17602894981460
C           -0.76581454806004       -2.14307329642606       -0.25446168284535
C           -0.66902486581501       -2.48976626066584       -1.74054402411241
C           -0.81758931100745       -1.69918187330644       -2.85982812335651
C           -0.65415713594171       -2.27365088794355       -4.10767167688900
C           -0.34651942981560       -3.62000353085999       -4.23461502314870
C           -0.19642949797319       -4.41905048210978       -3.11903063414910
C           -0.35851796793340       -3.84905997141887       -1.86429663389296
C           -0.25573689500799       -4.44142198929812       -0.53132401645741
S            0.07467117836038       -5.99402992223685        0.20705418096307
C           -0.11970906338710       -5.33247260241211        1.82722997672012
C           -0.01304673535688       -5.96883077929079        3.05836164786024
C           -0.20919227509953       -5.24507809170830        4.21022996120879
C           -0.51196309542134       -3.88270555239887        4.15683297098325
C           -0.62073099800336       -3.23903235918527        2.95196812175492
C           -0.42400948780983       -3.96767137366844        1.77028016965716
C           -0.49109746141112       -3.48846767609456        0.41421409935712
H           -5.04452029851228        0.54786823863214        1.47505267076657
H           -5.44988557502410       -1.63015147730931        0.42156510486414
H           -3.55732595842141       -2.98120004862567       -0.42691882563333
H           -2.73959610426330        1.41976858966085        1.69425155292574
H            3.72420433353489        1.56716473095763        1.16698195710165
H            5.38663400873782        0.00421400785314        0.23504722352327
H            4.67083806822700       -2.13047426447660       -0.75841602324364
H            2.27716708698912       -2.72471040991748       -0.83148154795834
H           -1.05293206801218       -0.65512144988645       -2.74987736306613
H           -0.76478619269604       -1.66613822592008       -4.99085193503852
H           -0.22274320228281       -4.04799564466219       -5.21588013184419
H            0.04164131687442       -5.46458680086060       -3.20471732729765
H            0.21947053798779       -7.01903114185694        3.09324048231214
H           -0.12955812978870       -5.73380701930357        5.16739331849323
H           -0.66115505745874       -3.33328354933770        5.07180332845476
H           -0.85120935642396       -2.19010736381366        2.89318885379936
