79
 energy: -16.995606577292 gnorm: 0.000301602196 xtb: 6.5.0 (97a52f5)
C            1.79758995375308        2.90134395781310       -1.31169572617957
C            0.56603369218544        2.51973669619851       -0.80802162966832
C            0.38452314049031        1.25583839651575       -0.27957389826592
C            1.44969551784589        0.37536551485950       -0.26019359269266
C            2.68903698098276        0.75944752959153       -0.76686577898411
C            2.86564000701978        2.02463275886987       -1.29439911516923
C            3.69184515425057       -0.35434183000897       -0.64139921389697
C            2.95181376745806       -1.54746544632989        0.04187476631277
C            1.49204523635227       -1.03665126893156        0.25593165721914
C            3.00654963086464       -2.82364744898398       -0.79338153257625
C            2.56817402429254       -3.05978562150726       -2.07353060068708
C            2.71311871949119       -4.32993107804345       -2.63891987367318
N            2.29339651046639       -4.58527239394662       -3.97991296713270
C            2.51698599302438       -5.86931607959397       -4.58896558183709
C            1.92152491362676       -7.02265069462424       -4.08935947932526
C            2.14254664994684       -8.24367484616092       -4.69266076842430
C            2.95373403012987       -8.32799132107631       -5.80555418993122
C            3.54215355421660       -7.18616723896014       -6.32080921748096
C            3.32820025636945       -5.95959909152207       -5.72575133827494
S            4.08025779188923       -4.49377245485227       -6.38521913861991
C            2.76424621389394       -3.35320548017494       -6.04473850158280
C            2.49840144348883       -2.31593015196522       -6.91507604179646
C            1.46203735289825       -1.43488912896298       -6.66092071335279
C            0.67888399050892       -1.59865626820919       -5.53698623729346
C            0.93561206109962       -2.63231283395822       -4.65968248091433
C            1.99242351089260       -3.50803085486432       -4.88700817059919
C            3.33191312653050       -5.33328775187393       -1.87952957800557
C            3.78282586682886       -5.10261535697954       -0.60036785317616
C            3.61851900936015       -3.83739745918295       -0.04679780208252
C            4.00172837250758       -3.30946679914476        1.26269462784379
C            4.66550783925452       -3.90960672712847        2.32758665832659
C            4.92213747868858       -3.16704444741743        3.45736644246689
C            4.51902590396863       -1.82901570135319        3.56997627625764
N            4.81339816478280       -1.05837071502674        4.73557849313648
C            4.45256127274968        0.33327251709365        4.79654285723361
C            3.12456995473016        0.74140253261510        4.72927908749421
C            2.79860971602303        2.08089377777731        4.78476932634593
C            3.79221773056278        3.02880439297570        4.91831996609894
C            5.11670446859076        2.63563812152069        5.00051161504722
C            5.45452985523764        1.29882896860048        4.94447563041623
S            7.15130308770685        0.79096509886417        5.04900743261698
C            6.91109454525800       -0.71659990385555        5.95349637945554
C            7.83773400038756       -1.12022795687422        6.89289169166130
C            7.64351501833995       -2.28494332503673        7.61431664899487
C            6.51186667087619       -3.04527160901041        7.40284804380866
C            5.57945675004123       -2.65239939136327        6.46445053542999
C            5.77405601143154       -1.49764436147692        5.71364049581855
C            3.86667717283945       -1.23591288676088        2.48501629205365
C            3.61555877139238       -1.96719557442548        1.35016129473099
H            1.92528907488149        3.89030647385276       -1.72071692062195
H           -0.25849730810474        3.21355673473141       -0.82786958033454
H           -0.56907197865025        0.94921092302923        0.11380964474535
H            3.82707460481044        2.31133220968040       -1.68375810715759
H            4.54969287472609       -0.03619041127013       -0.04155582579840
H            4.07018122160807       -0.64575527952864       -1.62568625049573
H            1.22177123487181       -1.06922596040052        1.31554320858957
H            0.77888563263746       -1.66665511476246       -0.28389115889888
H            2.13383815790877       -2.25655738675155       -2.63568093797807
H            1.27904873789416       -6.94622051621485       -3.22955788551380
H            1.67933144070873       -9.13168713834863       -4.29466387819215
H            3.12716726258175       -9.28196631646217       -6.27586848529294
H            4.17295563824347       -7.24173973684824       -7.19199622660916
H            3.10766057941224       -2.20387203975725       -7.79618078217163
H            1.26244977300936       -0.62666915218841       -7.34521032309799
H           -0.13622968229608       -0.92027974637989       -5.34485051200255
H            0.31005431615542       -2.78175024880558       -3.79699568623383
H            3.47467196437969       -6.30255044980113       -2.32116451730481
H            4.26007598871217       -5.87921512957047       -0.02911592243970
H            4.97794833413239       -4.93626947225150        2.25282785619363
H            5.46258206758965       -3.61805473534503        4.26849276079206
H            2.35493599470684       -0.00522904267187        4.63906234785204
H            1.76666829688710        2.38614881032022        4.72599016874282
H            3.53753997893991        4.07501824382930        4.96204622867183
H            5.89849574365009        3.36831662258965        5.10984457342434
H            8.71158712343179       -0.51297253618144        7.05952345517583
H            8.37197395047083       -2.59240668012019        8.34653946483725
H            6.35368917177734       -3.94556538378438        7.97381261770707
H            4.68011255450155       -3.22490390429372        6.31847040645163
H            3.58029636494248       -0.20242239994832        2.52077506974609
