39
 energy: -7.992670205296 gnorm: 0.000535248788 xtb: 6.5.0 (97a52f5)
C            3.56083306101165       -0.49467884870909       -0.33214379328806
C            2.78824131133254       -1.61846426963973       -0.53554384766737
C            1.41812055314226       -1.54526414445850       -0.41415143849758
C            0.79156252345625       -0.34515086102927       -0.08202749941696
C            1.58118147912500        0.79641987518367        0.10781670737412
C            2.95785912068114        0.70502084348587       -0.01567818392395
C            0.92207174340187        2.10473515722818        0.43863158832466
C           -0.47332255364258        2.23259357614824       -0.20481718872016
C           -1.31230715584404        0.99318866205355       -0.02886327777130
C           -0.67707777487151       -0.24340225655776        0.06953249393285
C           -1.45342071718085       -1.35531900795016        0.36268187496479
N           -2.75127765658731       -1.34756743854836        0.58865939114285
C           -3.35566658604574       -0.16835876833598        0.48202895534797
C           -2.70329680696566        1.02251651048876        0.12526555867421
C           -3.51610774128435        2.26160590003739       -0.00290844330097
C           -3.19307533530963        3.28540941371628       -0.89234884827868
C           -3.95784934973916        4.42873542574695       -0.97054835457166
C           -5.07939074641184        4.56596357982069       -0.18043611872264
C           -5.45167814742174        3.54132294689146        0.66441269441995
C           -4.69411886048112        2.38471849490270        0.75013952998939
C           -5.16063896020910        1.21027153494975        1.56080467182433
C           -4.81608118388034       -0.10683395779374        0.84112856707700
H            4.63324603178029       -0.55200559594948       -0.42397155074188
H            3.25772014220235       -2.55475876201608       -0.79037357917938
H            0.82292987115109       -2.42275345680316       -0.59478839794415
H            3.55827570548117        1.58501601010946        0.14023524729996
H            1.56997819073645        2.93089109302746        0.11960971024787
H            0.83985128392237        2.19320302972596        1.52827387124155
H           -0.36038956364312        2.43649630914394       -1.27568885114452
H           -0.99893970860893        3.09398148259598        0.22434950631594
H           -0.96421321940819       -2.30864463911546        0.47075043180717
H           -2.35674342626509        3.16515818000942       -1.55706240282295
H           -3.68324357832660        5.21496205959174       -1.65495064596938
H           -5.67593479758417        5.46178841102234       -0.23853972689399
H           -6.34746686422896        3.62795302959543        1.25548407827998
H           -6.23942784069390        1.28591761071542        1.74526880408686
H           -4.67964948233512        1.23881925682093        2.54534893076286
H           -5.41068604163874       -0.20242868471208       -0.07428013580154
H           -5.07169691881587       -0.97353770139340        1.46184967154300
