31
 energy: -6.529543980941 gnorm: 0.000976764004 xtb: 6.5.0 (97a52f5)
C            3.04507961220127       -1.60307481650671       -0.44556590394913
C            2.91978304617825       -1.32144826239710        0.90696291311503
C            1.92817326413219       -0.47658483298444        1.36280635008829
C            1.05572041289899        0.08583034611340        0.44044052150270
C            1.18303637326954       -0.19963530472559       -0.92645383417221
C            2.17901292252598       -1.04578770842995       -1.37052885642371
C            0.10444754817226        0.54235529070686       -1.67998419810987
C           -0.63948175738631        1.27606884362383       -0.59021027487356
C           -0.06841742948160        0.99889047834710        0.63001411010822
S           -0.88683545918615        1.83789547434872        1.92620737263433
C           -1.99898113632914        2.56979357508964        0.79502729769459
C           -1.73829208245070        2.17351652217057       -0.49593775495747
C           -2.72152531455800        2.82463580150080       -1.43834669633736
C           -3.58349162816756        3.65887388447866       -0.52024890864526
C           -4.64914649008972        4.49339367638350       -0.79015956335328
C           -5.26435450322843        5.15304564663571        0.25983744043908
C           -4.82280847663501        4.98347862682460        1.56388966198992
C           -3.75772388619248        4.15222510097978        1.84596724543409
C           -3.13516356383367        3.48799910091013        0.79750005177956
H            3.82647378221860       -2.26441805197965       -0.78149492878344
H            3.60413667790444       -1.76640465770566        1.61062747257876
H            1.81997871420465       -0.24951754498681        2.40882198808792
H            2.27090538816485       -1.25954156235164       -2.42112853794335
H           -0.55557635024404       -0.14931396972933       -2.21395533018517
H            0.53492930124771        1.24111621165014       -2.40492665662655
H           -3.31638883795667        2.07469632759080       -1.97023375624502
H           -2.20804353181173        3.44860153740893       -2.17731290979183
H           -4.98778784420683        4.62014483419994       -1.80361962872890
H           -6.09662859460203        5.80818392649492        0.06076486157157
H           -5.31504897910844        5.50830275797488        2.36622880318702
H           -3.40383117765045        4.01461874836668        2.85251164891432
