70
 energy: -15.211554312325 gnorm: 0.000367857854 xtb: 6.5.0 (97a52f5)
C            3.59783653120473        0.87943174510874       -0.69826607631925
C            3.57090860002695       -0.46871365579367       -0.98902615562120
C            2.39396373379636       -1.17057269903257       -0.87068111275336
C            1.22009083726069       -0.54544769257072       -0.45376214640623
C            1.24782983697454        0.82581791424440       -0.17238237260357
C            2.44132923249634        1.51773331572538       -0.29673088870634
C            0.00474186913417        1.55956967417742        0.24168654519655
C           -1.21222036561205        0.70003693752873        0.42817514429445
C           -2.38961024921462        1.26935208419291        0.88446892427084
C           -3.52452203829106        0.50623652912563        1.07405521804223
C           -3.49285384351662       -0.84706739844973        0.80874345304440
C           -2.33201885756582       -1.42797382692503        0.35427683158696
C           -1.17894098420422       -0.67184971018333        0.15142547768682
N            0.01479553320119       -1.29888548126304       -0.31794004226986
C            0.00711702597248       -2.70862174916818       -0.62402470622779
C            0.60608089530535       -3.63710041747183        0.26324083895033
C            1.21387656205141       -3.20992876476056        1.46206453523302
C            1.80525066152096       -4.10201890868939        2.30776035275432
C            1.81816278093964       -5.46655652201315        1.99759165134917
C            1.23143969229322       -5.91707038397370        0.85147741446833
C            0.60083181705281       -5.02616514848470       -0.04167011825841
C           -0.02527682070250       -5.49605938784353       -1.22293479591105
N           -0.03402506924618       -6.90515796038549       -1.53186910554605
C           -0.88969810510966       -7.78958886955719       -0.80764550204492
C           -1.71163515432860       -7.29687126475999        0.20440303823159
C           -2.52770480437661       -8.13364511295988        0.92938571436662
C           -2.54434352477056       -9.48486112930532        0.65244980940113
C           -1.74690578049588       -9.98823266886439       -0.35595833991671
C           -0.91984971230037       -9.15936803402881       -1.09601467674180
C           -0.08811000890788       -9.73880370814828       -2.20403100519251
C            0.83439788121946       -8.76903755818311       -2.88458382681687
C            1.69865021026629       -9.22081926141768       -3.86825047168472
C            2.56525383300570       -8.35716761507948       -4.50811920949930
C            2.57867359231960       -7.02097383409653       -4.16574588617546
C            1.72638861743348       -6.55587447724785       -3.19166008696526
C            0.84015084628291       -7.41205871855207       -2.54049040643038
C           -0.63346178581069       -4.56857907279063       -2.10483011785325
C           -1.27311703066279       -4.99934762551696       -3.28560860291567
C           -1.84801857586238       -4.10517873506818       -4.14053366952472
C           -1.81319008998156       -2.73510531592232       -3.85723273835057
C           -1.20883284360529       -2.28272431494087       -2.72099465857178
C           -0.61003407722354       -3.17754833992627       -1.81019085096487
H            4.51797839425449        1.43361185437057       -0.78752720881334
H            4.47014880429117       -0.97132321427294       -1.30633037636244
H            2.37163306828523       -2.22179130549834       -1.09632261309273
H            2.45724390030342        2.57193818980473       -0.07755867270544
H           -0.21706288703848        2.33008429568224       -0.50577950599206
H            0.20513781007461        2.09787821625744        1.17532775498560
H           -2.41075619218606        2.32559427261949        1.09307413661428
H           -4.43183477322853        0.96636411355184        1.43012881325829
H           -4.37540066518932       -1.44798707490084        0.95678499066938
H           -2.30449440507349       -2.48327398199042        0.14894114413488
H            1.20569342973785       -2.16016758461283        1.69607614996846
H            2.26801246100974       -3.75657115701956        3.21769798765587
H            2.29190349378049       -6.16287179377824        2.67004474691405
H            1.23758522365780       -6.96558288900851        0.61192365079145
H           -1.69704385411304       -6.24328354808480        0.41937103827880
H           -3.15087970177191       -7.73466820122155        1.71321275180671
H           -3.18053719505073      -10.14514287616932        1.21903966853812
H           -1.76469314208596      -11.04129070740689       -0.58040650123896
H           -0.75527263394860      -10.17890416082195       -2.95420523128107
H            0.50363825891297      -10.57102962993121       -1.80549269327681
H            1.68786624023496      -10.26488872756292       -4.13171110188134
H            3.23028043316484       -8.72642817912046       -5.27172878934940
H            3.25474634679344       -6.34275095674008       -4.66057885561993
H            1.73660371596585       -5.51488120567890       -2.92177086687795
H           -1.29572251868163       -6.05266992396600       -3.50205467508079
H           -2.32998701182133       -4.45255847449862       -5.03972727680199
H           -2.26843361241841       -2.03674662328022       -4.54028046580127
H           -1.18241385581251       -1.23059156344406       -2.49922537804127
