47
 energy: -10.176502199073 gnorm: 0.000371588142 xtb: 6.5.0 (97a52f5)
C            3.65073768093096        0.77489716952875       -0.36383332273776
C            3.62992651850606       -0.58682739763445       -0.58163931120484
C            2.43313572648677       -1.26446680062894       -0.56213804589499
C            1.23248757467567       -0.60064354914295       -0.31984254598536
C            1.25544775095650        0.78308372493926       -0.11109860202722
C            2.46922606039608        1.45049052070338       -0.13330226680542
C           -0.01189080354917        1.55678570540339        0.11203682609050
C           -1.25885241650469        0.72612947975954        0.20727709272693
C           -2.46696115439103        1.33594937465932        0.50350054753205
C           -3.63192037087641        0.60172384922063        0.60046828886988
C           -3.60036749106023       -0.76287910128651        0.40242736388522
C           -2.40886224668672       -1.38371854051273        0.10731249207227
C           -1.22494027785764       -0.65743116802567        0.00049034697927
N            0.00151773378736       -1.33050414816179       -0.29999121997745
C           -0.00447067310024       -2.74364651771294       -0.57383710783413
C            0.45259361028984       -3.66891310100012        0.40132291273652
C            0.89574306125984       -3.23383415028269        1.66771783200750
C            1.33333471241958       -4.12406658401152        2.60202446585874
C            1.34918533559830       -5.49788282222495        2.32009981925294
C            0.92281829952762       -5.96013867866533        1.11279858116845
C            0.45596312424657       -5.06429618466705        0.11626212384947
C           -0.00333899372760       -5.51578612580791       -1.12233231469675
C           -0.46938951141394       -4.62755255155646       -2.09323604219316
C           -0.94392390870153       -5.07713630666691       -3.35272947273071
C           -1.38715734571279       -4.19102323138910       -4.28625949853375
C           -1.38009634491455       -2.81387092262362       -4.02053052367620
C           -0.93179284533184       -2.34573040624573       -2.82184951233750
C           -0.47078628308104       -3.22915209103067       -1.82372387775137
H            4.58597339983169        1.31049352915070       -0.37788898202814
H            4.54918809049086       -1.11855174939238       -0.76642445774008
H            2.41503685078722       -2.32595954941909       -0.73347426938178
H            2.48157835857762        2.51522933940917        0.02750889892878
H           -0.13143212664947        2.28256990457728       -0.70068996496287
H            0.09091013617888        2.14925195409045        1.02856831307539
H           -2.48860279410942        2.40138325701237        0.65868263936969
H           -4.56305977479282        1.09314617690604        0.83137312374153
H           -4.50678038380504       -1.34119449035696        0.47890377097436
H           -2.38110922950916       -2.44811479527948       -0.04469407899240
H            0.88052444137349       -2.18004528859160        1.88296561170650
H            1.66944139513036       -3.77384199615326        3.56425438701075
H            1.70027983572841       -6.18955128839481        3.06844023673661
H            0.93225263994955       -7.01525160572800        0.90002530231272
H           -0.00151251389600       -6.57004648544117       -1.33154668275388
H           -0.94841934235977       -6.13343403786603       -3.55983096876869
H           -1.74593088719975       -4.54626579924740       -5.23853054182244
H           -1.73202288476783       -2.12464106086879       -4.77062993473422
H           -0.92487173313781       -1.28998545933248       -2.61612743131165
