46
 energy: -9.934356368944 gnorm: 0.000174336576 xtb: 6.5.0 (97a52f5)
C           -3.62538755194526       -0.80690842108379       -0.27273704699401
C           -3.69435740262169        0.58744667396307       -0.30019459983022
C           -2.54938913052470        1.33194226357897       -0.22284296749642
C           -1.31095906386393        0.70703761729436       -0.11194330486351
C           -1.22540021867259       -0.69290211532322       -0.09062758199021
C           -2.41630621852581       -1.43710824234160       -0.17212806217171
N            0.00178966394599       -1.31122813411799        0.00593202084943
C            1.22664437049942       -0.68808361252778        0.10116783297609
C            2.42033786509957       -1.42762652948443        0.18431692771793
C            3.62704469629896       -0.79266542513759        0.28349502723878
C            3.69077542032142        0.60199521138875        0.30782083282670
C            2.54302263232153        1.34201065698709        0.22879846321662
C            1.30694635757993        0.71220925912948        0.11934141888393
B           -0.00346183788243        1.48525536069634        0.00284646820290
C           -0.00636628950567        3.04253081240809        0.00117827273059
C            0.51202872691487        3.73533498094111       -1.10512668236761
C            1.03293593964564        3.05748986114032       -2.23107599216195
C            1.54387809256779        3.74812162399222       -3.28654043024655
C            1.55852109793688        5.15254768760141       -3.27898339065038
C            1.05821777144058        5.84320507173944       -2.21984107447462
C            0.51574105157732        5.16047943282068       -1.09921069130280
C           -0.01155303302313        5.84360612852320       -0.00184778225426
C           -0.53631235812930        5.16090177830675        1.09699255482758
C           -1.08132621730674        5.84403474380069        2.21614239881767
C           -1.57909391569847        5.15382027173748        3.27676685960672
C           -1.55923720953322        3.74947817184615        3.28736739956561
C           -1.04572443843385        3.05846271514352        2.23340286250864
C           -0.52731627311972        3.73579626675644        1.10599251943650
H           -4.53169325202462       -1.38717194812120       -0.33154596233754
H           -4.65170241810489        1.07586137561886       -0.38001719249377
H           -2.59205570767875        2.40680340032933       -0.23971359229306
H           -2.36133372540070       -2.51141078312000       -0.15213791448507
H            0.00370202947425       -2.32709499153739        0.00701181719944
H            2.36939646287105       -2.50216811373407        0.16670120035419
H            4.53552496917983       -1.36938547724953        0.34359802764447
H            4.64627946332211        1.09417817713215        0.38651676552684
H            2.58165480511104        2.41705967935886        0.24322309186967
H            1.02194491071465        1.98153604449173       -2.23710074850035
H            1.94243515605661        3.21679844976175       -4.13526263350104
H            1.96927623334451        5.68339665871537       -4.12219529882472
H            1.06840019608780        6.91952404341227       -2.21770991748954
H           -0.01355275265635        6.91837404448927       -0.00301258116851
H           -1.09549670472964        6.92030182024252        2.21168407204509
H           -1.99180569803677        5.68496836157532        4.11883424044296
H           -1.95585660728781        3.21852227345573        4.13722635255040
H           -1.03076988761648        1.98257287539865        2.24174802084035
