23
 energy: -4.804465092158 gnorm: 0.000281457881 xtb: 6.5.0 (97a52f5)
C            3.64379305660287       -1.03288067242727       -0.16693642688814
C            3.75789090292118        0.30814684276956       -0.46090538239481
C            2.62778879199903        1.10844831369418       -0.47125584111280
C            1.38296931905846        0.58030309385900       -0.19448129291843
C            1.25789478453495       -0.78564634278289        0.09194916340857
C            2.40489035133711       -1.57521369289764        0.10857447253448
N            0.00402842205355       -1.37487291241785        0.33660896585662
C           -1.25150900287672       -0.78954659698367        0.09114377069175
C           -2.39614705163770       -1.58252999635571        0.10779048032972
C           -3.63694008829780       -1.04349136254785       -0.16560492972552
C           -3.75525808165821        0.29756352839136       -0.45777261515929
C           -2.62749729714894        1.10114327856578       -0.46864944269922
C           -1.38084013944556        0.57629083928479       -0.19391327844140
S           -0.00056345141993        1.68971204896559       -0.19818538404298
H            4.52077890650809       -1.65918285724060       -0.15580820382527
H            4.72296383737111        0.73460246162768       -0.68010628472224
H            2.70923478986875        2.16009625515149       -0.69119024554736
H            2.31284391169869       -2.62372760695509        0.33168469231959
H            0.00552387786043       -2.36754754046885        0.54791231418986
H           -2.30073851190999       -2.63099846596841        0.32968082827440
H           -4.51206919838132       -1.67232263714004       -0.15377392483141
H           -4.72188241589141        0.72159800656103       -0.67469217374033
H           -2.71222571314663        2.15287601531538       -0.68693926155587
