53
 energy: -11.529656917670 gnorm: 0.000896942332 xtb: 6.5.0 (97a52f5)
C           -3.94037961342088       -0.24469416052320       -0.19652132061354
C           -3.78373939740683        1.13540647946218       -0.33538528249177
C           -2.53975817794565        1.69261129861445       -0.24134245931349
C           -1.42549960651781        0.89186354877832       -0.00590806093111
C           -1.55935133786196       -0.49988811472967        0.13388874843990
C           -2.85592067985521       -1.04301659290575        0.03149184608247
O           -0.50270051220562       -1.35645212967518        0.36413336801685
C            0.78141071226094       -0.86018623263276        0.45601823952404
C            1.83833563115493       -1.76590108407388        0.67773224192308
C            3.13008043367167       -1.33371256066625        0.77774001291816
C            3.43022946235689        0.02470069427052        0.66319048124134
C            2.42771991968598        0.92809296847690        0.44965964355416
C            1.10651944563614        0.50214533732099        0.34301847070528
B           -0.03303585878357        1.46755570159165        0.11142872952214
C            0.21493949554745        3.00816477346231        0.02609377926672
C           -0.21306761705151        3.83132263494086        1.05483921148355
C            0.00083107627000        5.18503788934596        0.98791889442355
C            0.65181292165321        5.75012097210560       -0.11068157977660
N            0.88111065993257        7.16035083725259       -0.17923547958155
C            0.73110599393958        7.97683446161134       -1.32581967033307
C            0.29263864593946        7.67563601748277       -2.61449410454197
C            0.22034361771102        8.68502903969164       -3.54504754360539
C            0.56930676663202        9.99486040289138       -3.21414321384953
C            0.98755723814535       10.31379220426456       -1.94256103797271
C            1.06441214039589        9.30008038900600       -0.99016917174728
C            1.43417632552304        9.30924577531093        0.40867846570844
C            1.86007768616953       10.33030856762529        1.25516354928635
C            2.17237386902424       10.01960936466929        2.55881522118033
C            2.07424701865662        8.70829802102297        3.02547026093854
C            1.65434929602123        7.69203001213360        2.20027304103517
C            1.31551525387116        7.99117464366285        0.88141692064701
C            1.07897472845247        4.90688198382171       -1.13871428115170
C            0.86151084341670        3.55378909530781       -1.07072319640604
H           -4.92344942467110       -0.67992706016941       -0.27078336899488
H           -4.64386278857811        1.75885465847672       -0.51620417317678
H           -2.40616711578102        2.75476938109530       -0.34781013350276
H           -2.97041094085490       -2.10703779163023        0.13837642643845
H            1.60095299188561       -2.81105202526495        0.76700284318182
H            3.92364182914757       -2.04290723078968        0.94699404133755
H            4.45170830091384        0.35837965738903        0.74324906185404
H            2.64597649181269        1.97781338297220        0.36188065161091
H           -0.71486522737339        3.39439948310145        1.90085672848108
H           -0.35530945862054        5.82999047580015        1.77156789990552
H            0.00161651624277        6.67066941699219       -2.86092444574707
H           -0.11431977276502        8.46281908689158       -4.54504004551353
H            0.50427061955710       10.76709508495976       -3.96286414004841
H            1.24978532123638       11.32242520942405       -1.67618994277326
H            1.94285420021627       11.33632243379017        0.88352089236574
H            2.50299945989621       10.79767051662041        3.22702287859917
H            2.33532512575310        8.48870848401957        4.04771270895796
H            1.60098653087364        6.67772928871738        2.55194528286509
H            1.60817442461078        5.32971480548917       -1.97421609918981
H            1.19278653553292        2.90228050323272       -1.86072179017228
