54
 energy: -11.674749427031 gnorm: 0.000627439307 xtb: 6.5.0 (97a52f5)
C           -3.80966378305978       -0.62778431705856       -1.38100248713649
C           -3.73341926679379        0.75984132958358       -1.37723969618086
C           -2.57568189620266        1.37816056434946       -0.98150654205322
C           -1.47901510798493        0.62766167067407       -0.58184358284651
C           -1.53327845830288       -0.77507672247342       -0.58672733636214
C           -2.73096590609372       -1.38030814599694       -0.99487792838784
O           -0.47486637761868       -1.59010657820013       -0.21544082989012
C            0.72725405297196       -1.03217038237372        0.19221818064534
C            1.77342370484127       -1.89314310706652        0.55516018570126
C            2.98305111135906       -1.40208183670079        0.97303818051849
C            3.19411552277153       -0.03046796670845        1.04748034781233
C            2.18930807581531        0.83435997728306        0.69855517116341
C            0.96241679614426        0.34988461857564        0.26753794204206
B           -0.17835816995442        1.27498030371969       -0.13040809768238
C           -0.02999699850486        2.82444754392190       -0.05584268434416
C           -0.82699136055694        3.55789952484471        0.81227622045282
C           -0.69903934999226        4.92021859309605        0.88130414208984
C            0.23865100495904        5.59204495517954        0.08716364287297
N            0.38708150591128        7.02325086447731        0.16963648182349
C            0.17401376596174        7.83866264730617       -0.96359534060865
C           -0.23936921678685        7.30082656677462       -2.18021297885882
C           -0.44756556909748        8.10064516992433       -3.27881791712703
C           -0.25191032682470        9.46772236847718       -3.18702019556871
C            0.13916872057428       10.02677509294655       -1.99568383059713
C            0.35216155014927        9.23609757455415       -0.86326231948831
O            0.71990878151123        9.84897131143646        0.32118636922903
C            0.91248952763882        9.04681607774383        1.43183959954736
C            1.28114783001025        9.64443766733139        2.64015769794912
C            1.51058388109367        8.88891929841934        3.76322602064986
C            1.38281500979752        7.51187240961206        3.70876983460293
C            1.01676222121372        6.90114058328438        2.53284941614601
C            0.76059118753423        7.64357010800849        1.38237185936046
C            1.03492268583229        4.83793950830993       -0.78393349524961
C            0.89875627682524        3.47649490816592       -0.85511267268167
H           -4.72080410055117       -1.11272697626638       -1.69073209995720
H           -4.58296006119036        1.34730395595273       -1.68422075420068
H           -2.50426268428111        2.45138384989841       -0.97828279385487
H           -2.78197479990775       -2.45455425075622       -0.99861128543488
H            1.60219449435679       -2.95339455393971        0.49822156498073
H            3.77406183782658       -2.08092864577326        1.24648661553684
H            4.14584995466834        0.35097855414244        1.37883527461716
H            2.34040270486323        1.89762825124975        0.75741639374235
H           -1.54227636217038        3.04070924610248        1.42795188730670
H           -1.32468232166451        5.49507097193556        1.54147463346860
H           -0.40763230600816        6.24163573184753       -2.25236786234097
H           -0.76399808752085        7.66389275889488       -4.21172779661016
H           -0.41198144166819       10.09360659699355       -4.04953975493787
H            0.28481871699366       11.08882660623773       -1.91016811759324
H            1.38754544463605       10.71419437117436        2.66803921792097
H            1.79574901077943        9.36727716858952        4.68582934705812
H            1.57148730508293        6.91931037468546        4.58881116782937
H            0.93447452374994        5.83028717052278        2.49166684867498
H            1.76555538091632        5.34683277544682       -1.38795449762854
H            1.50697136595817        2.89762386169925       -1.52830134606739
