69
 energy: -15.288533789329 gnorm: 0.000561879986 xtb: 6.5.0 (97a52f5)
C           -3.56523617265672        0.43932713983489        0.32358245079400
C           -3.58627808868256       -0.75489561429987       -0.36120359438935
C           -2.39994934503757       -1.38635699305389       -0.68165946646278
C           -1.17832474630178       -0.84159652306244       -0.32043287241329
C           -1.15521078685604        0.38879626332547        0.36683597807737
C           -2.35896224935833        1.00627196174103        0.68230089943233
O            0.03788370342607        1.01125407796360        0.73294496897636
C            1.23648788701953        0.38343803661196        0.39503583079064
C            2.43512472412411        0.98874182573958        0.75098367335790
C            3.64652524948972        0.39598960818537        0.45716944889195
C            3.67802808873448       -0.81650446637511       -0.19433292763062
C            2.49691456832773       -1.43324075648882       -0.55960649628132
C            1.27026873263789       -0.84999169865205       -0.28630547077906
N            0.04868702580407       -1.48468202751613       -0.65416357466171
C            0.05383168036596       -2.74229987380206       -1.35935699762954
C           -0.48196495195986       -3.89257794258651       -0.77437115085770
C           -0.48179433134138       -5.08684810109254       -1.44949544833255
C            0.05589760374209       -5.17662070818551       -2.73236492567663
C            0.05780212918108       -6.43563838625404       -3.46111873532721
N           -0.45966122085494       -7.58200376124502       -3.01074299742226
N           -0.28746156441125       -8.49320952802386       -3.92249293363250
C            0.34438618315768       -7.93482959455958       -4.95866599389083
C            0.71983290230563       -8.63019797348635       -6.18000023763671
C            0.40240719232947       -9.97383273303113       -6.37192259219173
C            0.75279972761025      -10.61491654076596       -7.53312529448176
C            1.43600556506974       -9.93572855826331       -8.54525356890801
N            1.79273871626266      -10.60395780438487       -9.77200298718667
C            2.71307684863203      -11.69177070305767       -9.76941779723378
C            3.31706330255092      -12.12306662923399       -8.59952786637443
C            4.21348644105256      -13.17441813981587       -8.60432861282490
C            4.52277020656559      -13.80777746976585       -9.78703576698126
C            3.94272479041973      -13.38585677140418      -10.96629452129520
C            3.04192569018340      -12.32844886405227      -10.98322672860601
O            2.49997584028914      -11.92438917643044      -12.20306808298992
C            1.60717536497004      -10.85303460439292      -12.20216100752256
C            1.05630375699386      -10.43692441232898      -13.40770364919297
C            0.15024817351841       -9.39667551329468      -13.45474122243130
C           -0.22343825169423       -8.75810638494583      -12.29360664717705
C            0.31602113046939       -9.15443829654763      -11.08503983104282
C            1.23751884428554      -10.18682239222782      -11.01632990807691
C            1.75761823483705       -8.59079621827517       -8.34633667804047
C            1.40390192498127       -7.95109703481441       -7.18563433810301
O            0.58471833223922       -6.61764169103902       -4.70465221623391
C            0.59317182968821       -4.03235086586033       -3.31758925670235
C            0.59150145913783       -2.83657512444120       -2.64543244601569
H           -4.48905738386790        0.93341713018997        0.57583675907432
H           -4.52638547987901       -1.19668892040530       -0.64764047836761
H           -2.41862188700730       -2.31251465795808       -1.22713058473191
H           -2.32987916004364        1.94243840797985        1.21075679801781
H            2.39796657765572        1.93147066685920        1.26716910850986
H            4.56634493516706        0.87984645833325        0.74189217714303
H            4.62217753324514       -1.28463617008502       -0.41887025717949
H            2.52356201362082       -2.38561094119355       -1.05757228919396
H           -0.88874136504455       -3.82633778227721        0.21943372481455
H           -0.89665183822856       -5.97003340218573       -0.99662502869495
H           -0.12495011057159      -10.49925515570575       -5.59529989084528
H            0.49579068410003      -11.64841494943620       -7.68579583634726
H            3.08613849302044      -11.62239073918082       -7.67667234695929
H            4.66993489730404      -13.49724929618746       -7.68322745357032
H            5.22040307387030      -14.62903817063125       -9.79334569261223
H            4.18308988125706      -13.86730209641660      -11.89741074375936
H            1.34867812697572      -10.94908125621291      -14.30701847987963
H           -0.26755334820293       -9.08819670087187      -14.39897271148318
H           -0.93636812815605       -7.95086677400075      -12.32647547539567
H            0.01343699870330       -8.66236044885630      -10.17839321855684
H            2.29427916374908       -8.06761400014368       -9.11827222368017
H            1.65048512448173       -6.91442144628492       -7.03415613120919
H            1.00614851722174       -4.10365730634546       -4.30897542529114
H            0.99575053938720       -1.95117148532602       -3.10387270748153
