42
 energy: -9.090641303464 gnorm: 0.000324363087 xtb: 6.5.0 (97a52f5)
C            3.03550483535907        1.49499933258791       -0.53234577417599
C            3.26384921476898        0.15286858075524       -0.75277281867474
C            2.42092500599351       -0.79122323304165       -0.19588301426596
C            1.34614489910688       -0.40025225600698        0.58175442519965
C            1.11535900029644        0.95617859465979        0.80545099783327
C            1.96407001758423        1.89405766027785        0.24535959929797
S           -0.25559029919223        1.49638440714522        1.79890016665976
C           -1.50249455199325        0.47179645538899        1.05401173959421
C           -2.71806380459616        1.02371298017117        0.69018847742921
C           -3.69367322624813        0.24519862408040        0.10083327292266
C           -3.46879393462130       -1.10434966549726       -0.13599519040720
N           -4.46988316500883       -1.92027042532013       -0.76878628561562
C           -4.91559353036313       -3.18234103669730       -0.32627519440662
C           -4.58214719444655       -3.92508808331643        0.80656679664531
C           -5.17925880281425       -5.14725277362955        0.99472559376191
C           -6.10655193772940       -5.64615153344479        0.07446371881619
C           -6.45109968237600       -4.92563026217765       -1.04336723848113
C           -5.85424926463338       -3.67972832078593       -1.24727984336659
C           -5.99296325239322       -2.69500373513066       -2.29258055297096
C           -6.76396946459407       -2.66062128388579       -3.45658555181342
C           -6.66132938774950       -1.56791982142480       -4.28296165312206
C           -5.80139346656713       -0.50972076001750       -3.97281476728532
C           -5.03692670752364       -0.52939397117179       -2.83228156626260
C           -5.13403774999462       -1.62754604859010       -1.97737863064487
C           -2.24748431038926       -1.65590800010036        0.23761231137603
C           -1.26845219442555       -0.88348397696358        0.82729905100155
S            0.27523269640820       -1.63468859034011        1.27955225252638
H            3.69084134336331        2.23264482080726       -0.96560401804231
H            4.09809625430715       -0.16066300658590       -1.35870554689897
H            2.58995016373870       -1.84183018778771       -0.36265663446303
H            1.77641748700805        2.93983713093568        0.42232586339042
H           -2.89091032518015        2.07114824068496        0.87151679029001
H           -4.64198076852426        0.67256377832867       -0.17362433478322
H           -3.87456227569300       -3.53230947074761        1.51439927426519
H           -4.93082552216585       -5.73172331584071        1.86536584264253
H           -6.55793499042074       -6.60935257338619        0.24649348565229
H           -7.16410554279694       -5.30197018010462       -1.75544445551282
H           -7.41820880191114       -3.48158177090250       -3.69113290294587
H           -7.24889338723772       -1.52596635679462       -5.18530166082403
H           -5.73660809750911        0.33294702244153       -4.64137181525702
H           -4.36620496733191        0.27625055257621       -2.59385922992063
H           -2.05890031150504       -2.69760754114769        0.05161902083759
