69
 energy: -14.876782349736 gnorm: 0.000800319200 xtb: 6.5.0 (97a52f5)
C            3.44778359032101       -0.49971410346551       -1.09306720845517
C            3.24465741752736       -1.66723179018656       -0.38981607148401
C            2.06771901194091       -1.85589820188528        0.30418773771147
C            1.07070221486846       -0.88471049145364        0.31083751833000
C            1.28909125797109        0.30063530055203       -0.39952775055755
C            2.46944289359913        0.47831380132099       -1.09494850882146
S            0.10765793106431        1.61516129547389       -0.41861726095211
C           -1.37703916256387        0.72049487453306       -0.06410550685084
C           -2.57381122240100        1.27790769629207       -0.47143790572773
C           -3.77832894782212        0.66441715814608       -0.17907233780198
C           -3.78674459398433       -0.51342596856594        0.53526284128580
C           -2.59687708589236       -1.08183422684589        0.93978196280176
C           -1.37269198054732       -0.49379635700521        0.63396423462886
N           -0.14565323192805       -1.12131644459224        1.03123752351688
C           -0.13419707854348       -2.11297299953654        2.08322269715967
C            0.48325957816104       -1.82200480890129        3.30813499930720
C            0.55102283626531       -2.75273765194490        4.31849550880805
C           -0.00664629158787       -4.01117184460160        4.11443091410386
C           -0.62070598007289       -4.31180975566880        2.88875464544081
C           -0.67907030436782       -3.38522665045828        1.87734978218489
C           -1.12455143066831       -5.73863565841251        2.99254648489127
C           -2.43685337940106       -6.17529868958971        2.31467699474485
C           -1.11562240888519       -6.68282452876112        1.77573168784042
C           -0.74613349715579       -6.23370024696030        4.37538292005390
C           -0.94621527573577       -7.43406983402907        5.01094616226795
C           -0.45517565172349       -7.61040897695077        6.30929341639532
N           -0.67690689147880       -8.84722203330063        7.02456678724094
C           -1.70587713330310       -8.87894596945253        8.02194001843829
C           -2.72787285880617       -7.93470777266919        7.98859226599981
C           -3.74621971175224       -7.95078427933646        8.91880053768904
C           -3.76186710144423       -8.91444119851830        9.90379489745257
C           -2.75097463180242       -9.85730363000146        9.95631749058907
C           -1.72409361630530       -9.84647226703090        9.03235170334051
S           -0.44655787363658      -11.05713423422243        9.19384469581319
C            0.14492133064373      -11.12303953317348        7.52783929991663
C            0.77926194395602      -12.27952652248137        7.11686672572691
C            1.31760887811954      -12.38033831125714        5.84694225888465
C            1.22807200512783      -11.31139746671588        4.98251558464341
C            0.58962377617009      -10.15533035350508        5.38064770747393
C            0.01937031167984      -10.04254523953284        6.64556000652965
C            0.20809977557144       -6.54888037796201        6.94125783849823
C            0.40151515230702       -5.34304234000986        6.30858787325436
C           -0.07552376238780       -5.17783227870698        5.01184680967618
H            4.36576192243861       -0.34719886117337       -1.63657993140724
H            4.00335226905630       -2.43268434592046       -0.38323601922387
H            1.90488570675688       -2.76987404714322        0.84725606443933
H            2.62121624708947        1.39797668944388       -1.63550797349361
H           -2.55619413971200        2.21014282381780       -1.01158899988042
H           -4.70506999848722        1.11028043699801       -0.50113692055112
H           -4.72199607502706       -0.99231029653161        0.77552493046592
H           -2.61276669915224       -1.99580956725587        1.50403312246296
H            0.91069856175892       -0.84393096706764        3.44316634864090
H            1.02517292947005       -2.52245484373530        5.25616141413948
H           -1.12105596094792       -3.63702900905900        0.93120208516572
H           -2.98663273445757       -5.42214249928513        1.74891263801966
H           -3.08491586732001       -6.85918565285167        2.86417549071215
H           -0.74252718461568       -6.28942500122573        0.82935907900464
H           -0.84192122774319       -7.72463195223577        1.94677161827882
H           -1.48852873502304       -8.22477220403827        4.52659539088774
H           -2.71949080289928       -7.18865261776667        7.21393959583494
H           -4.52952331692183       -7.21187451604779        8.87377696382211
H           -4.55572366571132       -8.93200137475033       10.63237683342680
H           -2.74892914926012      -10.60990875410549       10.72741460017131
H            0.86122617806065      -13.10172960118391        7.80852630789361
H            1.81161523883270      -13.28728972928030        5.53909242821066
H            1.65361177170439      -11.37945255386198        3.99457421320766
H            0.52957698831934       -9.32369080902899        4.70321858124325
H            0.56525246023590       -6.69729825958802        7.94522500101917
H            0.91199648247459       -4.53309957570204        6.79897915554096
