18
 energy: -2.738316024073 gnorm: 0.000312274510 xtb: 6.5.0 (97a52f5)
C            0.96341073141611       -0.01878560706778       -0.08919887841348
C            2.45553728727630       -0.04206836757459       -0.06667536927049
C            3.17348633503116        0.89692968877599       -0.97789192762063
C            3.12621536168150       -0.87581644892163        0.74227627838016
C            2.42991509628786       -1.82419050423170        1.66251702474645
C            4.61879303436395       -0.91726549938976        0.78266647532842
H            0.58433518166274        0.71599211573668       -0.80121239603466
H            0.56024848514420        0.24275466438408        0.89065751883469
H            0.56023483600582       -0.98997067659446       -0.38130154014427
H            2.47678914530174        1.49963908729332       -1.56264062107363
H            3.80272483469438        0.35343365977926       -1.68483174450565
H            3.80292712098763        1.58711421049135       -0.41347348601173
H            1.34455028177089       -1.75432750643768        1.59485245319514
H            2.70630875306289       -1.62761468851348        2.69989135103051
H            2.70615314602360       -2.85519780373628        1.43469788952003
H            5.07738329918991       -0.20749342541592        0.09461567120733
H            4.98410033417434       -1.91129451781909        0.51875190847423
H            4.98396673592494       -0.68424838075832        1.78442939235756
