76
 energy: -16.926747030252 gnorm: 0.000172366272 xtb: 6.5.0 (97a52f5)
C            3.47802103821548        0.48235383932217       -1.88199180705404
C            3.44002460080811       -0.81557990421767       -1.42095051007151
C            2.52025136219603       -1.17681524142274       -0.45974452453026
C            1.61970053245517       -0.25307968358822        0.06531460613124
C            1.67103633928029        1.06332109186453       -0.40580435064950
C            2.59342577931850        1.41468373006350       -1.37296412543596
S            0.61064405073660        2.33263065661903        0.20780281051937
C           -0.71218428467512        1.36852905390684        0.87254594526886
C           -1.93076998933370        2.00008748852791        1.03556420015273
C           -3.00009853171623        1.34211910408542        1.61303735972256
C           -2.84612832544642        0.04266175186455        2.04307668367436
C           -1.63763659516439       -0.59915507916744        1.87505172640268
C           -0.55629512164091        0.03264209755278        1.26490635245392
N            0.67338937203051       -0.67356746384871        1.05514131938609
C            0.94030859187092       -1.90793414041067        1.75828240628384
C            0.18874866781573       -3.06974035282087        1.50550573027055
C            0.46911189850432       -4.23853474085128        2.15189203330781
C            1.52996647346439       -4.32370568533594        3.06506103474282
C            2.31943668200637       -3.17698230835936        3.30080064579395
C            3.42632111723422       -3.26925184537610        4.19357873882521
C            3.72605774882934       -4.43403969508796        4.80923087030129
C            2.94962965545193       -5.61559161803626        4.61377708117174
N            3.30919858403965       -6.73041895408548        5.25213222363834
C            2.51964669325139       -7.78341434802025        5.03429391566497
C            2.83604046444981       -9.02005514384864        5.67282131482165
C            2.07112097937317      -10.12297979511258        5.51803029048714
C            0.89710561966972      -10.09211703877202        4.71090174014012
C            0.07718679082694      -11.21504357321493        4.56206780056178
C           -1.07566798034779      -11.17134697833874        3.79728593093904
N           -1.93951784820981      -12.32833646017048        3.72683748587982
C           -2.68255911204545      -12.67781496594227        4.90069793738663
C           -2.87422028167130      -11.72807873018058        5.90110920238312
C           -3.59610882707783      -12.02096283969109        7.03841349975771
C           -4.14566040031197      -13.27436010876858        7.19960589558176
C           -3.96409289906816      -14.23205045738557        6.21931379762161
C           -3.23778421552900      -13.94957727735549        5.07820183652087
S           -3.02419161040935      -15.24571193620663        3.90023548689015
C           -2.67276641322767      -14.31042774666196        2.44280556745508
C           -2.90861018038803      -14.92188073923700        1.22607156205949
C           -2.59873942128961      -14.28430472080776        0.03966825608508
C           -2.03686174437737      -13.02684234437230        0.06998898959736
C           -1.80697439890489      -12.40455785828502        1.27857645152283
C           -2.14054947285540      -13.01527605814086        2.48513691191138
C           -1.42711485887551       -9.95953462771980        3.17567292014671
C           -0.63252169535989       -8.85638013265899        3.29522394812876
C            0.54354725087453       -8.89085713148853        4.05841679099790
C            1.37143874689786       -7.71656612683370        4.20000922588009
N            1.02950670042920       -6.60976306716028        3.54296312333711
C            1.82642918003553       -5.56211327726853        3.74528150560066
C            2.00187292104270       -1.98433839966742        2.64332534771793
H            4.19501891243580        0.77058855589311       -2.63303562618414
H            4.12762426404349       -1.54751488309141       -1.81191633887425
H            2.48624173280292       -2.19238280915957       -0.10759153066971
H            2.61844901008065        2.43411850590070       -1.72122914157716
H           -2.03148254343062        3.02478627873489        0.71762302175809
H           -3.94399066083305        1.84696834499976        1.73728779242441
H           -3.67045855005858       -0.47253360662137        2.50850319241059
H           -1.52575498715202       -1.60691422283486        2.22875360491369
H           -0.60037855593835       -3.02746224889762        0.77517294979820
H           -0.11525384828619       -5.12104032563001        1.96024103786618
H            4.02830569839575       -2.39350468958471        4.36333261575281
H            4.57004742343631       -4.49434447454085        5.47353151657920
H            3.71460422630335       -9.05269492282669        6.29273358772179
H            2.33439003936123      -11.04152483222984        6.01313807083170
H            0.33496134616686      -12.13114045988168        5.06054558930250
H           -2.45369284017354      -10.74672649256484        5.77213558930414
H           -3.73184035401267      -11.27016980541521        7.79950002123344
H           -4.71121599077122      -13.50857695792763        8.08646461509113
H           -4.38284328992617      -15.21771761475794        6.33827594416417
H           -3.32710746969461      -15.91483248481046        1.21594157158198
H           -2.78486932590265      -14.77312290730472       -0.90249495940992
H           -1.77952840656269      -12.52897784658092       -0.85058269787865
H           -1.35743568629896      -11.42919752886955        1.29086228447716
H           -2.34928328047410       -9.90915983192681        2.62349663863557
H           -0.90607848656425       -7.93319624811924        2.81566353996013
H            2.59626798985543       -1.10664670984430        2.81810392545106
