22
 energy: -4.472024121539 gnorm: 0.000397643831 xtb: 6.5.0 (97a52f5)
C            3.83907157627147        0.70893862658720        0.00158590289438
C            3.83930790795877       -0.66706544724045        0.00206464498473
C            2.63733218925380       -1.34972525148743        0.00007591002812
C            1.42562686160791       -0.67710999914439       -0.00260943456553
C            1.42524223862832        0.71813111957235       -0.00324963942598
C            2.63678793739161        1.39116351007361       -0.00097250758569
S           -0.00007222763524        1.77647983472099       -0.00768896921327
C           -1.42528218914577        0.71791444586693       -0.00321538373731
C           -2.63688685205536        1.39083798929684       -0.00094555113504
C           -3.83912729405461        0.70850471347874        0.00193861096557
C           -3.83922493885463       -0.66751149605477        0.00278250508641
C           -2.63717848401806       -1.35004620157481        0.00072636122196
C           -1.42554767099945       -0.67730363381097       -0.00238156341699
S            0.00012068474409       -1.73488768081876       -0.00564266738633
H            4.77000622864715        1.25182332410525        0.00301021333278
H            4.77063451171419       -1.20928855900948        0.00384874853749
H            2.62936806730610       -2.42785616243380        0.00044884201524
H            2.62824160026424        2.46928090263645       -0.00150316659272
H           -2.62845381798645        2.46895445903972       -0.00172784792376
H           -4.77010014129143        1.25131007544054        0.00339401346083
H           -4.77049571165475       -1.20982953087976        0.00491517176207
H           -2.62910047609189       -2.42817503836398        0.00138580669306
