26
 energy: -5.768068021363 gnorm: 0.000763443513 xtb: 6.5.0 (97a52f5)
C            3.25629450952278        0.20229738834916        0.32472260230768
C            2.69255697402272        1.40637792263692       -0.12230569107163
C            1.34035170878037        1.52594353250957       -0.31847607224611
C            0.52832631171162        0.41627295704181       -0.06184212487319
C            1.09493187517952       -0.80167458072930        0.38815229385947
C            2.47773523591351       -0.89711672848970        0.58119312061396
N            0.08034722193211       -1.73750703780282        0.56715165977498
C           -1.13436483587686       -1.12408793352952        0.22584933083626
C           -2.54617602907782       -1.34841856116009        0.11310689912748
C           -3.35667012854814       -2.46278821872018        0.35381306941229
C           -4.70581147439428       -2.35019170962802        0.13369241100380
C           -5.26785691442979       -1.14883295513715       -0.32262173379735
C           -4.49068560601832       -0.04509681762073       -0.56422927692110
C           -3.11111856582883       -0.13288394155955       -0.34600294560683
N           -2.09828899627721        0.80782594318524       -0.50852917561596
C           -0.88538644118574        0.19655859184801       -0.15859133129595
H            4.32256463773353        0.14151350338183        0.46878979570975
H            3.33378551343103        2.25083091123089       -0.31451252141194
H            0.89998390527922        2.44549990347296       -0.66111937062310
H            2.90574983428428       -1.82144371178339        0.92584008159671
H            0.19199808768182       -2.70505799927849        0.86174031507696
H           -2.91763933843420       -3.38027238569279        0.70381799999334
H           -5.34532826332614       -3.19871353818185        0.31347169400583
H           -6.33167464036374       -1.09375791463264       -0.48597753106306
H           -4.91805837741360        0.87771329946756       -0.91365651219693
H           -2.20504620429769        1.76278008082244       -0.84335698659525
