22
 energy: -4.779868265598 gnorm: 0.000988707046 xtb: 6.5.0 (97a52f5)
C           -3.40964837750611        0.16542469139311       -0.01138943680551
C           -3.00232846548146       -1.17424043079297       -0.00502143057628
C           -1.67069762479681       -1.50984835783086        0.00474740009773
C           -0.72167895919905       -0.48360973891315        0.00881207155233
C           -1.13188198320149        0.86569680832078        0.00206290675294
C           -2.49251632375192        1.18630020910999       -0.00817067932828
N            0.00148548601407        1.67532935272426        0.00362124173326
C            1.13355818740705        0.86387700798625        0.00693812747351
C            2.49472644594253        1.18237483732909        0.00352163236487
C            3.41027949006373        0.16011289849865       -0.00284003437636
C            3.00084000950647       -1.17890580708230       -0.00740341928947
C            1.66866247776755       -1.51243423420379       -0.00364026914781
C            0.72119550178205       -0.48478820329630        0.00774713207795
H           -4.46206323371910        0.39707301620548       -0.01949696071269
H           -3.74699586396046       -1.95313219401123       -0.00851569093798
H           -1.35028747627367       -2.53660373898227        0.00759895646874
H           -2.79795100029751        2.21738261586502       -0.01395377436785
H            0.00246264012960        2.69325960141393        0.00046920105744
H            2.80176906554619        2.21298883417233        0.00448640456503
H            4.46307595051884        0.39014330883342       -0.00565786050049
H            3.74428671566044       -1.95893254074058       -0.01448344132550
H            1.34664733784906       -2.53868793599885       -0.00767207677560
