21
 energy: -4.640622922542 gnorm: 0.000989554847 xtb: 6.5.0 (97a52f5)
C           -3.40621233109115       -0.15865403300375        0.01939215658817
C           -2.98108761779745        1.17552022371163       -0.00126095979902
C           -1.64594778291020        1.49268381010414       -0.01498236851202
C           -0.71183850216916        0.45447244468594       -0.00865974981174
C           -1.13895553140939       -0.88844406260476        0.01217483649069
C           -2.50305756391491       -1.19147835961945        0.02618601694315
N           -0.01620478332284       -1.70882407275214        0.01612673811347
C            1.12235006684373       -0.90864237670393       -0.00482431600006
C            2.47547757675275       -1.22328274052641        0.00014373594570
C            3.33905923360995       -0.16540269208796       -0.00978987673241
C            2.84595845500714        1.13967553456417       -0.02279925645953
N            1.57735094000197        1.48723169765592       -0.02822557050563
C            0.72844077689295        0.44756972817712       -0.02011744962152
H           -4.46154637049949       -0.37625884775952        0.02977636374999
H           -3.71511570119869        1.96442662215994       -0.00638298068721
H           -1.30982780592263        2.51421014283518       -0.03094143448060
H           -2.82234805799941       -2.21821549600884        0.04194565801093
H           -0.02533648684592       -2.72618140348400        0.02507409921066
H            2.80803824806515       -2.24593575358109        0.01279834267213
H            4.40280152375599       -0.33818218954112       -0.00618256262604
H            3.55498171415158        1.95439182377894       -0.02948142248911
