21
 energy: -4.380060670651 gnorm: 0.000490183261 xtb: 6.5.0 (97a52f5)
C            3.86239434420324        0.59253006859283        0.00881376235255
C            3.72961829507515       -0.80168388662545        0.01080985583126
C            2.49169965906795       -1.39374389727196        0.00457766499646
C            1.36113435673193       -0.57517500171914       -0.00361470594339
C            1.49167119830575        0.82713076190582       -0.00553338014831
C            2.76111279424536        1.41129542023628        0.00076583513504
N            0.21842286737008        1.38998072088440       -0.01302402678023
C           -0.73610644847243        0.36527768111582       -0.01608985142695
N           -2.08186941312045        0.37780364608498       -0.02158977577782
C           -2.65764749637229       -0.77031051288383       -0.02071751993435
C           -1.97478214250559       -1.95430334818425       -0.01538849640132
C           -0.66256812880040       -2.05807236752934       -0.01064965036688
C           -0.04470953816335       -0.87148946850294       -0.00994532544735
H            4.84783366953946        1.02857917738184        0.01390944925560
H            4.61375565209580       -1.41761668991305        0.01761105541190
H            2.37342342822224       -2.46289330490344        0.00628286185343
H            2.85651002012775        2.48238203443511       -0.00077023327933
H            0.01709833584493        2.38754848377680       -0.01858939947951
H           -8.61167661256910        3.10037834008559        0.13043589777401
H           -8.04949983443695       -2.02318853211113       -0.00344421166987
H           -2.53288500633764       -2.87878932507648       -0.01579980600046
