62
 energy: -14.085812544056 gnorm: 0.000754660915 xtb: 6.5.0 (97a52f5)
C            1.47658923714922        2.36034171364418        2.35016134115677
C            2.00372078854871        1.19982475337498        2.89649028672024
C            1.71066717822789       -0.01317424696833        2.33193825035608
C            0.88426889956987       -0.09381025873655        1.20967567642117
C            0.33720060305987        1.08077338687521        0.64218745468376
C            0.66105922853882        2.30267142472231        1.24730497026509
C           -0.53525273869402        0.99498481263214       -0.53686332951409
C           -1.10839185871874        2.12864912357208       -1.12864998468059
C           -1.92294656840060        2.02582733529621       -2.22879968038033
C           -2.19960697322322        0.78591297555119       -2.78538852591649
C           -1.65786083659362       -0.34531981777965       -2.23527613823104
C           -0.82655250965445       -0.26358178677338       -1.11488218827614
C           -0.25250750924715       -1.44109273144354       -0.52149847375436
N           -0.33976409716092       -2.76527055884839       -0.84700770488833
C            0.43145023287670       -3.44252396656872        0.08964600629966
C            0.62050816559649       -4.88788318412044        0.11896947882315
C            1.37604929698524       -5.47171227284254        1.13452649029029
C            1.56471634753830       -6.83099646784866        1.17883025099407
C            1.00654013034281       -7.66192206570599        0.20877074607232
C            1.21984433782856       -9.10263543678916        0.27331964825674
N            1.94035360890327       -9.70136654801605        1.22058017338438
C            1.90023997334919      -11.02198319199290        0.93888935295949
C            2.48906170223192      -12.12801329094142        1.65432211846273
C            3.23810800884930      -11.91273805878314        2.81257851175741
C            3.78729754376531      -12.96666884139152        3.49365281759731
C            3.59907916254351      -14.26049983011687        3.03099113395526
C            2.86704690554345      -14.49340507741302        1.89310468558525
C            2.29054525288489      -13.44151780586555        1.16814606476766
C            1.50044688025547      -13.66708905282469       -0.04987300497859
C            1.28800044851235      -14.94748386496458       -0.57835207553204
C            0.54230186919519      -15.13635088292051       -1.71521698836149
C           -0.02312927940242      -14.05415439992110       -2.37300381343255
C            0.16472769384929      -12.78680848458520       -1.88891557800394
C            0.92196598602222      -12.57174027395377       -0.73434709079526
C            1.13515977161239      -11.24755897485027       -0.21541052795400
N            0.70518481065605      -10.02020667012517       -0.63447507799118
C            0.25163310110727       -7.07856142932349       -0.80870981146862
C            0.06201360790404       -5.71856414318917       -0.85243719340262
N            0.98328957191143       -2.60597568174029        0.96765302101029
C            0.57562972573510       -1.36894257040488        0.60884947540582
H            1.71022223016083        3.31331798656374        2.79618864283549
H            2.64258942857404        1.25355274991588        3.76275638865532
H            2.11332990532337       -0.92113240831202        2.74545243862736
H            0.26770099956578        3.21810044138222        0.84525672701271
H           -0.91240859318828        3.10199793888979       -0.71792286643305
H           -2.35209926588975        2.91337474520369       -2.66447577917820
H           -2.84076475408546        0.71405884086870       -3.64875429781190
H           -1.86897905523923       -1.31015783278301       -2.66118420582749
H           -0.87026980713830       -3.16369769075802       -1.62073717242497
H            1.80985027758454       -4.83686915905726        1.88690462893846
H            2.14842535764360       -7.27462830567858        1.96614894951831
H            3.37425383155210      -10.90402539969066        3.16142109518279
H            4.36289706566783      -12.79231906878766        4.38797843049227
H            4.03034202998329      -15.08771506871831        3.57101429639766
H            2.73537127965547      -15.50646418584204        1.56003779468460
H            1.71659863705492      -15.80384904760813       -0.09120742450294
H            0.39429115571512      -16.13173807836000       -2.10126994287299
H           -0.60851002719426      -14.21146037859705       -3.26409071655130
H           -0.26904987761205      -11.94263161401749       -2.39498169082540
H            0.11930843726746       -9.83019947820456       -1.44648557063329
H           -0.18413801676402       -7.70467627665483       -1.56622629114961
H           -0.52089893867696       -5.28446236766168       -1.64458420175088
