38
 energy: -6.942908620059 gnorm: 0.000679916348 xtb: 6.5.0 (97a52f5)
C            1.19021089945437        0.10638922626173        0.13188343347748
C            2.66515800261677       -0.03881689648577       -0.00612038877559
C            3.33525744710845       -1.19559412001560        0.64201461078197
C            3.35417703584762        0.90495327195700       -0.65185310653860
C            4.81039185195302        0.91197103321624       -0.84800455195705
O            5.47512194606171       -0.09287745104512       -0.69585617158669
C            5.44173004123230        2.19303284456066       -1.23674888768591
C            4.96079010610289        3.40072796124295       -0.74749837317220
C            5.54870609554159        4.60580638455875       -1.07980548905460
C            6.66034762335825        4.61647657857537       -1.94726945484861
C            7.14955075433927        3.39862455027138       -2.42727009764478
C            6.55837215757420        2.20465648735251       -2.09460095839668
F            7.01460366347560        1.06078125380948       -2.64978642554613
N            7.22578095350308        5.81353432851035       -2.33396992355821
C            6.57674151411230        7.13696418223357       -2.11208661508009
C            5.56862832923735        7.38287878151615       -3.23900976549730
C            7.64647626670719        8.23482009966252       -2.11094100538722
C            5.84216768534592        7.11033586571504       -0.74115760301049
C            5.03474268641576        5.85991861843623       -0.52337690950975
O            3.99739364074838        5.89636823433478        0.10136044654304
H            0.74394503482548       -0.76858858369104        0.60494296168911
H            0.71944439688778        0.23205656581332       -0.84370414026895
H            0.94285180998166        0.97619445048673        0.74133812351124
H            2.63195343967285       -2.00129115463458        0.85326789840193
H            3.79891907850793       -0.89393489097527        1.58149269144149
H            4.11719793688457       -1.59800782555575       -0.00238989872266
H            2.80829478130293        1.72861372683340       -1.07584432809945
H            4.12339492707296        3.40893500964646       -0.07305911602417
H            7.99454822217808        3.39037766664984       -3.08923264388143
H            7.95233963576494        5.83508180772656       -3.04427606192474
H            6.06409126405423        7.37169031303091       -4.20845014036514
H            5.07236854613150        8.34497764655791       -3.12027589606329
H            4.80666682919174        6.60505133156312       -3.24389381285104
H            8.15248709163970        8.28407639029141       -3.07375697163064
H            8.39737924733462        8.03768505859243       -1.34753350809827
H            7.20493237966668        9.21004983374254       -1.91079045193285
H            5.18257134176692        7.97830459423342       -0.65957232766499
H            6.57381533640277        7.20025682502101        0.06563485893064
