30
 energy: -6.539654817250 gnorm: 0.000233382966 xtb: 6.5.0 (97a52f5)
C            3.23529095268301        1.86301383027932       -0.04693324899330
C            3.69359032248120        0.55855818315854       -0.06136061276548
C            2.79901609786681       -0.48029542159512       -0.05544709238525
C            1.41443034718522       -0.25742123129950       -0.03529285821496
C            0.94664193058531        1.07409608647399       -0.02465582506463
C            1.88765011527100        2.11409843138712       -0.02905577038583
C           -0.49084134578617        1.34421172103994       -0.00981386194769
C           -0.99051818861828        2.65480380684036       -0.01995497941370
C           -2.33742987923359        2.91022543164168       -0.00636590998469
C           -3.23751818408419        1.86088952260771        0.01839014303962
C           -2.78081919529886        0.56820803326629        0.02717727936130
C           -1.40974035833731        0.27323862028100        0.01154955112195
C           -0.92479576765098       -1.10676100061117        0.00934020328636
C           -1.80972701141943       -2.19466342853808        0.03072865734308
C           -1.35733512162716       -3.48883505636931        0.01966859634100
C            0.00109111754913       -3.74423684591055       -0.01351677077815
C            0.89196481386084       -2.70236098044880       -0.03264995819113
C            0.46193172497250       -1.36739101062379       -0.02052051569295
H            3.93841893943685        2.68017864500711       -0.04925753258311
H            4.75318667370880        0.36049244690769       -0.07606016106840
H            3.18094596729142       -1.48433461136440       -0.06538320936081
H            1.55765459483778        3.13634887423361       -0.01587360603231
H           -0.31239110439431        3.48772910593626       -0.04192761517958
H           -2.69620435733335        3.92687413663487       -0.01620186560750
H           -4.29674378719619        2.06116742477796        0.02880067898230
H           -3.50090734964507       -0.22888428605684        0.04433582922851
H           -2.86991715198616       -2.02339209019017        0.05685852240108
H           -2.05823336276007       -4.30775891608914        0.03642801025546
H            0.35721443642250       -4.76175723726885       -0.02354493752222
H            1.94191413121871       -2.92775218410789       -0.05877114018905
