88
 energy: -19.718515328949 gnorm: 0.000813766679 xtb: 6.5.0 (97a52f5)
C            2.38390621114076        1.42969031496353        1.72303953721232
C            2.87560165504074        0.12707808203862        1.84757223648278
C            2.15036589138388       -0.94930122168299        1.39864223180388
C            0.90522148658663       -0.72207680290880        0.81336689915088
C            0.41313991162458        0.58775306781647        0.68186937037833
C            1.16123874870697        1.67172221406694        1.14419241397208
C           -0.87055271777687        0.49979869192622        0.02612158613240
C           -1.80690184828836        1.46711704079768       -0.34241836931719
C           -2.96984710374717        1.06027875185123       -0.95117952243580
C           -3.21767830162602       -0.29328335365772       -1.19737897797280
C           -2.30556334799500       -1.25618776672493       -0.84103437342649
C           -1.11770804467430       -0.86035740490849       -0.22728417595491
N           -0.03015017790354       -1.61873947286543        0.25498591000007
C            0.09983711103619       -3.04909946812842        0.19557516058416
C            0.35256141667584       -3.78500290850646        1.34899224967326
C            0.47939271150914       -5.15216714459371        1.29426039550772
C            0.36521247378666       -5.82803812724514        0.08030358543816
C            0.51707334824788       -7.28309795036572       -0.01135711039848
C            0.39616451282861       -8.17433843687351        1.03946260814692
C            0.62178639391544       -9.45524958779687        0.51471275642366
C            0.62777107527754      -10.73636454772625        1.09818753814728
C            0.90353675231787      -11.81385266705049        0.30975544794357
C            1.18490593042797      -11.67539546296648       -1.07491332204572
C            1.52245014449479      -12.86705156157104       -1.88334446669574
C            0.80299696932665      -14.07842693519558       -1.70799494448456
C            1.11721717399598      -15.20785876593273       -2.40456761745568
C            2.18758904634274      -15.16405446380370       -3.31836309402699
C            2.76377889005083      -16.13064575697797       -4.15616248614499
C            3.80781937721282      -15.51404614405732       -4.82258389672234
C            4.71517123972271      -16.14625733067390       -5.78283915742801
C            5.68524125773778      -15.37245473259970       -6.41254758894923
C            6.56767471670752      -15.93465839719342       -7.30336758088254
C            6.51138600459998      -17.29445497102069       -7.59173401889626
N            7.44771999575686      -17.88888236610132       -8.50502730317546
C            7.76973873497746      -17.41601068477086       -9.79524798658826
C            7.28262707445569      -16.32745116234992      -10.51839121698201
C            7.76754792890277      -16.10328181474248      -11.78357629253952
C            8.72923983888424      -16.94688397455739      -12.34682583089384
C            9.21450217524393      -18.02842121832945      -11.65187635657210
C            8.73001911045622      -18.26947419762920      -10.36524535819055
C            9.01520428970745      -19.30198538802930       -9.39724966163956
C            9.88214420334113      -20.39576932713121       -9.41807684318904
C            9.94467836349231      -21.20812044493436       -8.31153727368135
C            9.16138609441290      -20.94785160304481       -7.18353804972411
C            8.30207406791194      -19.87709311008090       -7.14997308074610
C            8.21826814914485      -19.04740797997905       -8.26798118916995
C            5.54022188844434      -18.07055094202785       -6.96666703683421
C            4.65655521506593      -17.50766646552217       -6.07711242227984
O            3.90722932666148      -14.18687217934229       -4.44663441120961
C            2.91297659368749      -13.96720849274663       -3.51587913614726
C            2.56206341472574      -12.82085811124087       -2.79253042571784
C            1.16911977080418      -10.41814727714531       -1.64835507458203
C            0.88373831312744       -9.29267595829467       -0.86501691643079
O            0.80724025747938       -7.95268514076267       -1.18620025858292
C            0.11950436039774       -5.08834468542441       -1.07267456742470
C           -0.01738468045965       -3.72204932051630       -1.01655557583183
H            2.97485433613266        2.25565749892709        2.08319575581042
H            3.84011528148181       -0.03357367397242        2.30045902418324
H            2.52604365854411       -1.95330742303988        1.48231803175886
H            0.77859552714313        2.67151437698490        1.03952195241267
H           -1.61117971892446        2.50612772846758       -0.14467171161610
H           -3.70374740343856        1.79436480594323       -1.24045544248397
H           -4.14033422640099       -0.58477135799003       -1.67169107084550
H           -2.49285024030413       -2.29996115612147       -1.01874830210560
H            0.43804864488056       -3.26532795340669        2.28721231010644
H            0.68252504507737       -5.70959350411108        2.19175301251530
H            0.16333859460670       -7.94071214728435        2.06247373041432
H            0.42391924246616      -10.84574637621431        2.14869720288958
H            0.93156798407571      -12.79833795573122        0.74316715279812
H           -0.01537958765075      -14.09293474577902       -1.00947270998581
H            0.56989303598619      -16.12358514789210       -2.26683326242021
H            2.45070944735829      -17.15488786424664       -4.24482321034090
H            5.73597951069323      -14.32203163496287       -6.18277531896441
H            7.32652558803679      -15.33389335187606       -7.77306486269209
H            6.53487368249931      -15.68850920247353      -10.08421759823332
H            7.40016508560873      -15.26526664289798      -12.35275575262112
H            9.09212349883157      -16.74718066302366      -13.34161715244849
H            9.95100855299049      -18.68527474999964      -12.07973318071489
H           10.48536517254647      -20.58602142196721      -10.28806864439188
H           10.60962058416708      -22.05608441187328       -8.31074235846718
H            9.23543930390338      -21.59687990284220       -6.32649263289307
H            7.70591596710526      -19.66526487869964       -6.28070722667220
H            5.48564351696209      -19.11957223003408       -7.19940981382684
H            3.91546140459568      -18.12200866835387       -5.59724012150306
H            3.12914725872812      -11.91983898144466       -2.93034611500646
H            1.36977653742801      -10.29179684412543       -2.69535410048437
H            0.03961863787163       -5.60753053750417       -2.01223694966876
H           -0.20109731840845       -3.15306591830354       -1.91100759016684
