108
 energy: -24.578713887534 gnorm: 0.000777596768 xtb: 6.5.0 (97a52f5)
C            1.87210508226355        0.93705715752934        2.57807759770382
C            2.10876158690204       -0.41957951880266        2.81988514652602
C            1.60298026412720       -1.38238171913728        1.98262921181214
C            0.84886505513121       -0.98730539803547        0.87960580746246
C            0.60662744134748        0.37449643643371        0.63803197883384
C            1.12467249114303        1.34424488790992        1.49862059663610
C           -0.21396717476759        0.45607318227115       -0.54638337752973
C           -0.78499369618884        1.54068633252383       -1.21406619944962
C           -1.57983572319520        1.29719592805057       -2.30755165862274
C           -1.82307344946439       -0.00883484000474       -2.74089947962573
C           -1.26656484313404       -1.08549240115546       -2.09530597542489
C           -0.44015404489306       -0.85863441405173       -0.99369252383621
N            0.23767850143313       -1.75080196608014       -0.13295001278874
C            0.31071585670179       -3.18110582069291       -0.19597387644591
C            0.34142224246378       -3.81206428322301       -1.43331019681174
C            0.36245069643169       -5.17574022690791       -1.49846762099679
C            0.37053960196715       -5.90266435448480       -0.31717657052652
C            0.24225147084994       -7.37134191405517       -0.32922364936225
C            1.01062639142395       -8.13838467452254       -1.18756325436835
C            0.86193490439803       -9.48843728049560       -1.14994705551887
C           -0.07505513950588      -10.02067452320146       -0.28121081310352
C           -0.28654416585366      -11.47792819663942       -0.21006286240701
C            0.78775036860483      -12.34921128663199       -0.10975076518034
C            0.54331442953198      -13.68016517345681        0.07105564296281
C           -0.76591773201708      -14.13415179663246        0.16873671227120
N           -1.01639239623462      -15.52987794296611        0.37964643977789
C           -2.12665406745489      -16.20337983507300       -0.16402436973643
C           -3.18097160653627      -15.73044191850750       -0.94261719446190
C           -4.13877300151465      -16.61513089680493       -1.37096447667580
C           -4.06514120218402      -17.97001512147974       -1.03366104977872
C           -3.03550403838463      -18.45257898280309       -0.26115777356914
C           -2.05405871071730      -17.56270663614614        0.17970513061197
C           -0.87203682188693      -17.73269970616103        0.98991354114761
C           -0.32761859641171      -18.85093101280362        1.62339221435089
C            0.81065337222037      -18.69317486464544        2.37577723188554
C            1.41024870721423      -17.43864292831457        2.51446650807359
C            0.88708702503152      -16.33002899483093        1.89552206278519
C           -0.25899248735538      -16.47202865522056        1.11156752973704
N           -1.81803732913002      -13.32510105325445        0.03410127688499
C           -1.58300311007871      -12.02949358944595       -0.17282287802811
N           -2.72493910384930      -11.18588457529444       -0.39160164029451
C           -2.94835000581889      -10.27375155574772       -1.44593293103769
C           -2.16744204221011       -9.94084242556167       -2.55218643230530
C           -2.63869321552597       -9.00556352695403       -3.43946709550058
C           -3.88402857951952       -8.39964253378272       -3.25259518672440
C           -4.67613680887772       -8.72938919462576       -2.17942489053439
C           -4.20918296623754       -9.67816509915343       -1.26838282287300
C           -4.79812953575812      -10.26390472335267       -0.08770212415588
C           -6.02409942045217      -10.07257387389936        0.55164697029981
C           -6.30421259173009      -10.81308122980767        1.67529675202018
C           -5.38737826035968      -11.74501448748315        2.17142665342883
C           -4.17917490887879      -11.94544219559825        1.55118086925377
C           -3.87794264139009      -11.19842812453318        0.41471956929215
N           -0.80052834476719       -9.22720008732624        0.51857681609192
N           -0.64234304564012       -7.94322604873385        0.49937348571011
C            0.42150281830933       -5.18354524996428        0.89396663393681
N            0.55022909322775       -5.88955895502286        2.13831213672370
C           -0.23360919529813       -5.62634003502004        3.27661880913814
C           -1.26225647189931       -4.70819594806514        3.47431553071318
C           -1.88552587713191       -4.66839789446724        4.69675737039756
C           -1.49828131083291       -5.52830070225058        5.72909877521438
C           -0.48061659946549       -6.43516404863636        5.55177516941452
C            0.16107586232154       -6.48765075550373        4.31328304556212
C            1.24986210921865       -7.29043385310867        3.80920635641297
C            2.03585161949463       -8.28282247513711        4.39700135415450
C            3.04304642271438       -8.85182660263102        3.65558770024180
C            3.28686160948853       -8.44310587720687        2.34163571634363
C            2.52202597388674       -7.46828192879684        1.75097434524738
C            1.48278465514827       -6.89272727963419        2.48122473263739
N            0.37126299018957       -3.85306795323384        0.95459293815413
H            2.27884838906041        1.67364364918999        3.25123646631166
H            2.69249286013190       -0.71230211037916        3.67704165735504
H            1.75583133216073       -2.42984066249549        2.16532207513186
H            0.93336642282154        2.38574404211504        1.30980503136295
H           -0.60553100814643        2.54173877688449       -0.86376675360916
H           -2.03099758630133        2.12291026486698       -2.83274506192211
H           -2.46338304128133       -0.17286304842079       -3.59204559744302
H           -1.48141657180552       -2.09055788188269       -2.40945191718712
H            0.35914082127938       -3.22026389866909       -2.33064927165644
H            0.33862475414397       -5.68697199994470       -2.44540537188004
H            1.72034792518451       -7.67043399614253       -1.84779545763083
H            1.43704006658400      -10.13401554725609       -1.79113965629230
H            1.79421088112477      -11.96929675053173       -0.14651565302766
H            1.35459922326726      -14.38355705357378        0.12097350353107
H           -3.23306968589823      -14.68257587657511       -1.17307112074960
H           -4.96079827058671      -16.26093231074049       -1.97090271384886
H           -4.82951806889815      -18.64470566176345       -1.38247646873460
H           -2.97454139208453      -19.49304056315296        0.00466693113740
H           -0.80399423415709      -19.81005043146040        1.52252408865894
H            1.24297050617324      -19.54575935472263        2.87316457083258
H            2.29464325711670      -17.33988984900117        3.12229932290946
H            1.32967024825520      -15.36026122627348        2.03202410408051
H           -1.21501461076528      -10.41834858435992       -2.69492998843002
H           -2.04020450179203       -8.73474561513286       -4.29376248545031
H           -4.22956453455472       -7.66844246524848       -3.96473283998386
H           -5.64113327988924       -8.27655968182423       -2.03528229928286
H           -6.72645994712687       -9.35702800390037        0.16209207813794
H           -7.24573647743265      -10.67588444564776        2.18114768589331
H           -5.63514221219920      -12.31627070538571        3.05091428295846
H           -3.46983990899305      -12.66884098301968        1.90998221765137
H           -1.53602010601327       -4.04305728983311        2.67582801735079
H           -2.68226267489642       -3.96262265566328        4.86493573677681
H           -2.00391950262063       -5.47579278277665        6.67921485415813
H           -0.17424231533752       -7.09612775397107        6.34316956833624
H            1.84930876478802       -8.58353360091361        5.41278547463467
H            3.65890170049674       -9.61943008656817        4.09454193175547
H            4.08783804481356       -8.90040004808423        1.78427104777226
H            2.70966635255745       -7.14256656510464        0.74388240778748
