79
 energy: -17.928737651704 gnorm: 0.000472649461 xtb: 6.5.0 (97a52f5)
C            2.45235578865076        1.08442730135023        1.72953555703745
C            2.77837913943915       -0.26041462685920        1.93044476240066
C            2.03817565722921       -1.26010863500949        1.34957702823604
C            0.95185162200967       -0.91252977701800        0.54967153830396
C            0.62168769333945        0.43791446638987        0.34744199501923
C            1.38155134292224        1.44426964448817        0.94654330605414
C           -0.54094100591318        0.46914179054901       -0.50810048348193
C           -1.31643108910243        1.52036248621714       -1.00020682223770
C           -2.41482353723532        1.22461663782576       -1.77076917107035
C           -2.75848972557984       -0.10028007632323       -2.05423433639181
C           -2.00351565283597       -1.14448798314279       -1.58005764438288
C           -0.87648637092401       -0.86313277219890       -0.80782634351712
N            0.05192215770047       -1.71661099846707       -0.17457737260929
C            0.08218502516896       -3.14896806712842       -0.21429885745776
C           -0.14608701145732       -3.80301598751805       -1.40716425659914
C           -0.18065999705888       -5.16197932467183       -1.39795029851167
C           -0.00291946523181       -5.80976185930571       -0.18883641276013
C           -0.15084262503179       -7.27448535850462       -0.10350386763460
C            0.45988293003754       -8.10818580154853       -1.02716368571085
C            0.35240206707288       -9.45999529275982       -0.86828519765152
C           -0.34326438858653       -9.97447790451308        0.21795430739866
N           -0.45057667608002      -11.39546130178114        0.37817296209927
C           -1.58363589140955      -12.02500627130094        0.92750409245552
C           -2.75819884740677      -11.48477979618418        1.44724461344821
C           -3.73325833754230      -12.33399489415680        1.90720712264183
C           -3.55628380077669      -13.72024506101738        1.86153650261182
C           -2.40178703685157      -14.27042912861933        1.35768383880299
C           -1.40330227219680      -13.41677145952042        0.88438080884197
C           -0.09937462923053      -13.65810729870951        0.31611581224103
C            0.60559824070751      -14.83657996462140        0.06563296831448
C            1.87277285033936      -14.74822422275057       -0.45660834842052
C            2.45267087794188      -13.50537255233493       -0.72423069635623
C            1.77022173154904      -12.33794107708062       -0.48509638437060
C            0.47324875502762      -12.40566096268465        0.02672996535819
N           -0.96712123873590       -9.19593800964796        1.10394299779085
C           -0.89604696736638       -7.87614528048917        0.93038299477376
N           -1.64183906272319       -7.05489617060962        1.84425788273020
C           -2.53280051305407       -5.99928230318157        1.55028212796416
C           -2.98764793203822       -5.49211999660977        0.33326656485672
C           -3.84856870222655       -4.42317519931664        0.33947250949829
C           -4.28017559780911       -3.85401548608034        1.54049317340901
C           -3.86301746413321       -4.35561300726804        2.74966788302436
C           -2.98566886633386       -5.44134422642090        2.75840932175218
C           -2.39167187253013       -6.20185247777965        3.83181102234965
C           -2.49518490838404       -6.11627588856756        5.22132098017730
C           -1.79891576585148       -7.01738383377626        5.99107956369677
C           -1.00347738515946       -8.00527052564502        5.40221611916352
C           -0.89378075037249       -8.10196236998923        4.03725517006719
C           -1.59085180281003       -7.19423829900165        3.24330536154153
N            0.28243866176816       -5.11883145207067        0.92585961607753
N            0.33165826167773       -3.82458418630029        0.91289361565732
H            3.04946038571885        1.84955582297364        2.19766156601558
H            3.62114370964129       -0.51452149257123        2.55203288591213
H            2.26928506187342       -2.29811999821885        1.50340601146914
H            1.12371480123500        2.47660847415025        0.78907820358366
H           -1.05202972538762        2.53665927843125       -0.76725821028662
H           -3.02503532120767        2.02445525250223       -2.15678985005512
H           -3.63234301817098       -0.30448324308104       -2.65088551641375
H           -2.27809077208798       -2.16517141685074       -1.77562266209451
H           -0.29178092199160       -3.24210092213515       -2.31358132250730
H           -0.38836673871298       -5.72374890000055       -2.29232580176963
H            1.02301883079946       -7.68817305382406       -1.84266387246539
H            0.78077631508720      -10.13069350651255       -1.59078285949245
H           -2.86787972838641      -10.41730915228322        1.49413517178335
H           -4.64584120197208      -11.92797706874514        2.31147653228664
H           -4.33639182208911      -14.36591255894450        2.22990349180480
H           -2.25761898822556      -15.33576911849181        1.32283361959959
H            0.15598915859030      -15.78829011453058        0.28727551442613
H            2.43156432839366      -15.64807864128645       -0.65463720373586
H            3.45428285580718      -13.46359387187235       -1.11973106947268
H            2.23222231990935      -11.38351494492424       -0.65962093022958
H           -2.65796599728995       -5.93992437034518       -0.58670841457247
H           -4.19629089746496       -4.01534781807759       -0.59540014611933
H           -4.95305137556145       -3.01269618669438        1.51640916578416
H           -4.19769476885923       -3.92908487009201        3.67868951581733
H           -3.11153678293211       -5.35591351560010        5.66743834187030
H           -1.86852297082890       -6.96432961111539        7.06508671089195
H           -0.47186825383450       -8.70180588528416        6.02947167632869
H           -0.29885409467305       -8.86438372489912        3.56844554503045
