74
 energy: -16.687191750739 gnorm: 0.000601811996 xtb: 6.5.0 (97a52f5)
C            2.61435479020555        1.27992241070340        1.34162243100221
C            3.13281735722718       -0.01819535342517        1.35712443247445
C            2.36394112692169       -1.09271006377922        0.98223291417133
C            1.04560796164092       -0.86958085897030        0.58528093026170
C            0.52748326054335        0.43700149097031        0.56053084075829
C            1.32063369117683        1.51936919082887        0.94602521768597
C           -0.83359525991885        0.35053652257633        0.08894003246436
C           -1.81712313634858        1.31813704656855       -0.12499850966040
C           -3.04963094799263        0.91567758371644       -0.57956031463523
C           -3.32080941079148       -0.43409424660676       -0.82170074116029
C           -2.36315830652401       -1.39676256080188       -0.61603756733152
C           -1.10340156999036       -1.00584100953958       -0.16234699553783
N            0.04776483613471       -1.76405180916284        0.14198100635579
C            0.17884000421303       -3.18929085217307        0.01426500769645
C            0.68763922484952       -3.95459765476664        1.05864240970136
C            0.79771697561134       -5.31919755279839        0.94057731918977
C            0.40498107464507       -5.97577584678090       -0.22952783903291
C            0.50384210170499       -7.44169750455880       -0.35349046503043
C            0.71665726374457       -8.05225795150509       -1.63084712564216
C            0.77427318667398       -9.39235524525700       -1.78110521792131
N            0.62903142797508      -10.22978308258125       -0.67347879981385
N            0.61970720134723      -11.55028170412975       -0.55537328147289
C            0.43116682815435      -11.76060936898022        0.75288220070537
C            0.33479895258120      -13.10077763282982        1.33760713701643
C            0.30900619183894      -14.22991625328072        0.52309591694036
C            0.19784070362114      -15.48604600186111        1.06850012426587
C            0.11503461757574      -15.65425739224562        2.44723584862270
N           -0.01876349325355      -16.96817245065339        3.01616558452514
C           -0.99720340724890      -17.92346073705233        2.67019030876500
C           -2.04153942167183      -17.86842279350345        1.74734943191341
C           -2.86527198551953      -18.95933441320044        1.61556597827799
C           -2.66978925874849      -20.10757911808350        2.38892599803426
C           -1.64939152967523      -20.17689798476102        3.30651448296992
C           -0.80452385802851      -19.07485544691642        3.45303804196203
C            0.33028316426855      -18.82582220521989        4.30945007696552
C            0.97058328713173      -19.60722537306635        5.27330266861726
C            2.05868361270714      -19.08398259047902        5.92908173495072
C            2.52144613005491      -17.79641110670724        5.64110110976511
C            1.90062524771512      -17.01523673773225        4.69736290523894
C            0.79149379662918      -17.52855363056161        4.02552814257889
C            0.14905161470676      -14.52794702455483        3.26375413204597
C            0.25382542920303      -13.27143390943464        2.71723115508081
N            0.31750314523646      -10.62647361732381        1.48365505118911
C            0.43909607933109       -9.64839242598428        0.59372102659244
C            0.37576923948617       -8.25465279563473        0.74876532798734
C           -0.10088187000033       -5.19782183453680       -1.27498833026952
C           -0.21099042997302       -3.83396248775696       -1.15487040393793
H            3.24024676812986        2.10436830514098        1.64112306500143
H            4.15293344478043       -0.17687755590042        1.66607396254895
H            2.76104279173454       -2.09177508730745        0.98133684582795
H            0.91535198907636        2.51556125107527        0.92624909874086
H           -1.60175837874436        2.35417211405319        0.06799465463446
H           -3.81989776096206        1.64981677667229       -0.74955807855729
H           -4.29762842358996       -0.72276677396235       -1.17358608788254
H           -2.57021257006226       -2.43744214732668       -0.78901400362283
H            0.97953469103587       -3.46075002350661        1.96887932548056
H            1.20698674004662       -5.89288878751071        1.75354079245889
H            0.85139674370103       -7.41721882707531       -2.48845742743803
H            0.93453970053675       -9.84779541172847       -2.74053634422206
H            0.37189056639993      -14.10189426236276       -0.54320283677493
H            0.18170530109534      -16.35709113888077        0.43707173404599
H           -2.19036962669857      -16.97939330070205        1.16124771423500
H           -3.67542045831738      -18.93070511061645        0.90559717732370
H           -3.33096936028695      -20.94924472111616        2.26381001127031
H           -1.49436181109872      -21.05542942260756        3.90743327101611
H            0.61032845086727      -20.59801824526747        5.48657461987886
H            2.56492357894332      -19.67471152754834        6.67473306803144
H            3.37985407195792      -17.41279475168331        6.16757695949658
H            2.25584957139139      -16.02743103701274        4.46469100601807
H            0.07540749454251      -14.65653088401142        4.32940918869689
H            0.26952616056019      -12.40083965215560        3.34896435732153
H            0.19090869684333       -7.84262597856499        1.72211025166953
H           -0.43037203222594       -5.68033420868224       -2.17834009846621
H           -0.59317197875080       -3.24407520777106       -1.96947356211498
