92
 energy: -20.806450228356 gnorm: 0.000591748387 xtb: 6.5.0 (97a52f5)
C            2.84332450584618        1.27601108417764        0.17576554469128
C            3.28477139471078       -0.05034595723644        0.22165983590256
C            2.39435840374987       -1.09500237865597        0.18123963869591
C            1.03074149593064       -0.81207128018401        0.09607291104500
C            0.58699725832711        0.52124239542048        0.04228606513291
C            1.50496333627137        1.57308240361849        0.08517808019597
C           -0.85158483256461        0.48975860380863       -0.06422803377145
C           -1.81127885503913        1.50078232961595       -0.15141167145973
C           -3.13550376096989        1.14583708531003       -0.24127357445388
C           -3.52188947841361       -0.19839289986534       -0.24484041918711
C           -2.58997259483980       -1.20353236287703       -0.16088342749727
C           -1.24014148746528       -0.86174090171929       -0.07334450806884
N           -0.08796558097677       -1.66676945137215        0.02883750241008
C           -0.05565262364371       -3.10590179073641        0.03295604251511
C            0.63471303364623       -3.79232996750923        1.04910266773008
C            0.70210675452093       -5.16153538058854        1.07289235142112
C            0.06352084911258       -5.88315593415549        0.06393631383771
C           -0.63161023468545       -5.20940610110778       -0.95510019671815
C           -0.69067198126860       -3.81715050374227       -0.96864841741953
C           -1.15593970228500       -6.21124599828363       -1.85183985427486
C           -1.92379194406297       -6.12253649149922       -3.01428806092525
C           -2.27870633571110       -7.28325105058405       -3.65855052177250
C           -1.88345049978096       -8.53060078003043       -3.16464173540256
C           -1.12788665910369       -8.63343470525784       -2.02216448844646
C           -0.75613047590287       -7.46532152669832       -1.35689954197561
N           -0.00846149129116       -7.27162694999696       -0.17738263375144
C            0.61398946765948       -8.29688563329953        0.61802454104602
C            0.34916895542551       -8.39472758226584        1.98007864676521
C            0.96329676337268       -9.35820962830399        2.74438092262009
C            1.86611815018097      -10.24740441738006        2.17067260436863
N            2.53677481637980      -11.23155099080986        2.97873506409260
C            3.93247394164916      -11.38079418842372        3.11182205582176
C            4.98600730479544      -10.67748654227950        2.52804750212205
C            6.27381383350505      -11.02623389839931        2.85431224661459
C            6.53392023707780      -12.06373121055375        3.75535574826254
C            5.50800277602159      -12.76491831925077        4.34205008909468
C            4.19364011943744      -12.42206429516957        4.01975779826875
C            2.91892474550065      -12.93677684190949        4.45877248654977
C            2.57605533583697      -13.96201378795127        5.33787081924175
C            1.24011266955275      -14.24234988582636        5.55823065058958
N            0.86569961737308      -15.30128605799798        6.45925227882495
C            0.04239633036703      -16.40321121096063        6.15287606494418
C           -0.61060652108896      -16.75636343838291        4.97171440870437
C           -1.34961072410926      -17.91357174011325        4.94623873807349
C           -1.44974758878157      -18.73084420448046        6.07692381276590
C           -0.80983229630309      -18.40078937727795        7.24709127002426
C           -0.05437856600260      -17.22676738050053        7.28872427236912
C            0.73399846380304      -16.61415733544494        8.33049991110927
C            0.99916185083528      -16.98276417373377        9.65136514933799
C            1.80618402847176      -16.17162427861734       10.41202552661951
C            2.35344503037393      -14.99876818245986        9.88159524189918
C            2.10269976353721      -14.62366256388079        8.58460597280821
C            1.28851910469262      -15.43743127946665        7.79650127494846
C            0.24917426358380      -13.49299295314870        4.89723220991831
C            0.57293939218517      -12.47919764709580        4.03242656374646
C            1.91978559457990      -12.19159886888581        3.80879601035420
C            2.12793316674120      -10.15221936921684        0.80784768938676
C            1.50854922640037       -9.19307357942017        0.04220420087418
H            3.56485369592430        2.07575251671199        0.20938511721880
H            4.34088216826240       -0.25439478147013        0.28839936507072
H            2.72743593616517       -2.11699892888930        0.20799562334083
H            1.15773196594129        2.59042551200207        0.04463258917792
H           -1.50609007648839        2.53230570560658       -0.14600514544550
H           -3.88870045648202        1.91359540264628       -0.30868975374669
H           -4.56800335963420       -0.44797232499297       -0.31402305094358
H           -2.88035778772149       -2.23880441527869       -0.15658375019346
H            1.11246739141541       -3.21495204426015        1.82109112468036
H            1.23755405471748       -5.68363005194417        1.84536849890792
H           -1.20758158896649       -3.30163679211659       -1.75598662944327
H           -2.22616471682780       -5.15920171448643       -3.38557749380511
H           -2.87189399518408       -7.23300036963408       -4.55685531952559
H           -2.17813106559447       -9.42464714584867       -3.68931974020400
H           -0.82518084602434       -9.58896032725579       -1.63277688361162
H           -0.34650540511956       -7.70479410402456        2.42481546437090
H            0.76505743468955       -9.42812852704751        3.79961947785241
H            4.77776902303758       -9.87674325272043        1.84125050457116
H            7.09783955212513      -10.49151505721745        2.41103390087379
H            7.55444744936948      -12.31412039952955        3.99444916495158
H            5.69954434237122      -13.56145462579463        5.03924821357824
H            3.33870933100191      -14.53515691875283        5.83055601340226
H           -0.52354783666511      -16.12664677853434        4.10449765436000
H           -1.85978212392580      -18.19862291882799        4.04074015954684
H           -2.03574553732512      -19.63388505491706        6.02748836754386
H           -0.87803950935544      -19.02636873765450        8.11957288899437
H            0.57329741436252      -17.88551757178865       10.05246692278573
H            2.02089332414922      -16.44161858699889       11.43296257934989
H            2.98078430431391      -14.37995190765801       10.50205061088288
H            2.51542686215744      -13.72093270152710        8.17112734167404
H           -0.78253488544720      -13.72925247425039        5.09034506523678
H           -0.18550118860546      -11.91021642158194        3.52532959120737
H            2.82245706887034      -10.84323154085998        0.36295977001513
H            1.71881131333097       -9.11284328807680       -1.00997988329856
