88
 energy: -19.716216427247 gnorm: 0.000586978322 xtb: 6.5.0 (97a52f5)
C            3.40936590086663        1.05833200344483        0.33860493789436
C            3.73572098186042       -0.30056622738477        0.37623449792929
C            2.76774414998189       -1.26541272941343        0.24348639431844
C            1.44199202829280       -0.86722077147650        0.07214842344975
C            1.11480994219170        0.49921430217324        0.02670963242069
C            2.10980695650037        1.46853958406325        0.16375490181629
C           -0.31173093186023        0.59261602786800       -0.17276944194855
C           -1.17670511901556        1.68255242991885       -0.28475635299047
C           -2.51854939062200        1.44381757234925       -0.45915071610441
C           -3.01469002302191        0.13826431746305       -0.52054526375399
C           -2.17602878379287       -0.94353800479374       -0.41320569268806
C           -0.80966315382291       -0.71980075226643       -0.24314698651265
N            0.26314738440795       -1.62242025454473       -0.09411870205295
C            0.16081405506237       -3.05685302993062       -0.10251513210253
C            0.72584308341131       -3.81139321096718        0.95231791457524
C            0.61578227345050       -5.16992827469417        0.99486752166361
C           -0.08068603125289       -5.82533195729969       -0.03950439669433
C           -0.38690643105969       -7.17502148710467       -0.27500279956535
C           -1.11806938415622       -7.22249233776097       -1.44766355495439
C           -1.68305691197487       -8.42353843732320       -2.06650271654644
C           -2.23782919632951       -8.33872012366483       -3.33899320011157
C           -2.81282407552377       -9.43626656312306       -3.93427826749075
C           -2.86252988229872      -10.66607319161601       -3.27534977541292
C           -3.52356877871303      -11.83542339652230       -3.89184513223963
C           -4.63910973469325      -11.67606587932020       -4.71641099002657
C           -5.27977543706036      -12.76292751177674       -5.26219562516103
C           -4.83226481877841      -14.05664498136736       -5.00339247297168
C           -5.51921351558426      -15.23751318842760       -5.53088687462110
C           -6.53377032225917      -15.23665000416690       -6.47032169722190
C           -6.91626952623499      -16.57378835179269       -6.65936627250451
C           -7.89175039680134      -17.18142339845492       -7.47379383791235
C           -8.04023871449788      -18.53564366602411       -7.41781095032714
C           -7.23795243580873      -19.33261316192251       -6.56794147571722
N           -7.44722734668999      -20.75437713141941       -6.51190585100215
C           -7.51323577754571      -21.63277775183584       -7.61261893441538
C           -7.36279759546125      -21.39929450607548       -8.97951143651843
C           -7.46873674116776      -22.45886592254255       -9.84637874210411
C           -7.71968817526905      -23.75180146131243       -9.37747934498681
C           -7.86384658440570      -24.00098329433006       -8.03401502699538
C           -7.75739507663445      -22.93406663890622       -7.14022953785937
C           -7.84762427042469      -22.85822906420153       -5.70153625432975
C           -8.08879507947874      -23.82293227703777       -4.72178510849658
C           -8.13510488283822      -23.42909595921107       -3.40622128185043
C           -7.94926636808551      -22.09026236775258       -3.04939644326914
C           -7.71119979089818      -21.13029797635299       -4.00177475876975
C           -7.65311424618422      -21.51350701958911       -5.34179089366059
C           -6.27537272430978      -18.74520567387535       -5.77759421852896
C           -6.10061523534534      -17.35576145423716       -5.80994511945272
O           -5.23599635815849      -16.52985278111256       -5.12305830102002
C           -3.71703733520470      -14.22003524789377       -4.18845693162006
C           -3.07296657968320      -13.13362139669766       -3.64523361292919
C           -2.29753230074478      -10.74854917107257       -2.00099858645734
C           -1.71858097784072       -9.65119246769257       -1.40867895946918
O           -1.27580248546938       -5.95177917098710       -1.97376691161332
C           -0.64609961690558       -5.08695346035470       -1.10414404403831
C           -0.51162805055017       -3.69293982895952       -1.12187579965075
H            4.18956888075296        1.79385759155947        0.44579180198567
H            4.76389001122767       -0.59411646823229        0.51030904856730
H            3.01324942203863       -2.31195610756408        0.26291182745875
H            1.85065787944517        2.51197919486543        0.13010149769841
H           -0.78776663289767        2.68400268917463       -0.23140112722012
H           -3.19989521545782        2.27408390740261       -0.54643084950277
H           -4.07235944399813       -0.02042548159471       -0.65284097216755
H           -2.55263128074527       -1.94992036180237       -0.44976539554421
H            1.23578894152393       -3.28469373509480        1.73952156420200
H            1.03968502095539       -5.74323381419068        1.80023198182995
H           -0.10377266926354       -8.00474600729355        0.34661592675835
H           -2.21428009543675       -7.39087506045694       -3.84888885714544
H           -3.22505977003905       -9.35312288243624       -4.92471339856075
H           -5.01652532817958      -10.68563559778224       -4.90219552088708
H           -6.14786717362827      -12.61769234640246       -5.88065743831936
H           -6.95824814678812      -14.38302426807849       -6.96641591166139
H           -8.50555495149290      -16.57460025357154       -8.11566772875409
H           -8.79112361237671      -19.02302617070996       -8.01427051924440
H           -7.16127799685295      -20.40406703384388       -9.33286744516718
H           -7.35584024809933      -22.29251510620303      -10.90508693188997
H           -7.79874569011435      -24.56434075507798      -10.08085282685081
H           -8.05361032267684      -24.99335160731941       -7.66488455482012
H           -8.23654230023583      -24.85004453709289       -5.00500357160583
H           -8.32099901944151      -24.16118777202308       -2.63766563039900
H           -7.99598179240047      -21.80799913198263       -2.01041292593406
H           -7.57807252804942      -20.09736737784176       -3.73489413076207
H           -5.65772787312165      -19.34501148472870       -5.13717769718656
H           -3.36988471302162      -15.21853793999149       -3.98486625885720
H           -2.20469683396071      -13.28041235540274       -3.02686273729935
H           -2.34317582492712      -11.68150615501244       -1.46679600694964
H           -1.30485252346924       -9.73241565142986       -0.41899051138864
H           -0.93535833086997       -3.12724124059001       -1.92924449769624
