45
 energy: -9.832880720710 gnorm: 0.000740082387 xtb: 6.5.0 (97a52f5)
C            3.50020894867065       -0.21939118756714       -0.13044010305227
C            2.85019175539612       -1.44820055799529       -0.10615447069301
C            1.48324987371461       -1.50786865377051       -0.05311147894733
C            0.70400379983691       -0.33939012772727       -0.02096088884229
C            1.37036321495155        0.90555839327548       -0.04540729129510
C            2.77483498145068        0.93789441385320       -0.10106978973325
C            0.61798910261608        2.11081347193515       -0.00564775239356
C           -0.74309354927924        2.11739779520554        0.06412159632709
C           -1.46673479998272        3.40946611871278        0.12687142140447
C           -2.24164398606739        3.76067350465213        1.21834844506885
C           -2.90345132184069        4.97767517531527        1.24724606480541
C           -3.70214907487149        5.31050594215517        2.41294060018613
N           -3.84054242526671        4.53104128329569        3.45287756269520
C           -4.64295539137048        5.10287143631469        4.39859070426227
C           -5.13810624254114        6.32702874839642        4.10526188142556
S           -4.58515323395349        6.82357970085268        2.55665387517072
N           -2.83599978772923        5.86244850539713        0.24358766221026
C           -2.08657172698079        5.53152907025396       -0.81655960211123
C           -2.00400158992708        6.46589160991978       -1.92467817339854
N           -1.30534030910480        6.25774667421581       -3.00952201963622
C           -1.42129258947853        7.30157066241608       -3.88250881790843
C           -2.20402615465202        8.33104953470498       -3.48634596481736
S           -2.85218015268583        8.00515518568192       -1.92949437341481
C           -1.39564279847504        4.33306050804098       -0.90101630477358
C           -1.45891766720568        0.85969784041536        0.07342883454339
C           -2.86196259226557        0.82975421147182        0.10119209535664
C           -3.54532130156503       -0.35384270905824        0.09972137091338
C           -2.85000333543264       -1.55523515133231        0.06851777328877
C           -1.48184040244669       -1.55900215163520        0.03476533131438
C           -0.74783510241304       -0.36072410252637        0.03262618820561
H            4.57641352098481       -0.18204775035834       -0.17176324047540
H            3.42801855435143       -2.35767829964678       -0.12891680815136
H            1.00483282912298       -2.46972332021304       -0.03411205751249
H            3.27486686760561        1.89096166624072       -0.11829917718110
H            1.14291631040283        3.04883462908580       -0.01485389794018
H           -2.32943382692115        3.08971701605265        2.05259248279896
H           -4.85371620814706        4.58454862483352        5.32574412715012
H           -5.78081713189763        6.91254563054772        4.73468679808474
H           -0.90635970710910        7.28049364887430       -4.83488908571787
H           -2.40132257872140        9.22359237514952       -4.04889272938863
H           -0.81039698272984        4.11796238331337       -1.77560991614907
H           -3.40357410869695        1.75879191800418        0.11624305040432
H           -4.62283502013253       -0.35662213373486        0.12085392760632
H           -3.39211926344291       -2.48671297111259        0.06724762293274
H           -0.96552939576927       -2.50081856190542        0.00508452738113
