30
 energy: -6.534271480484 gnorm: 0.000757413765 xtb: 6.5.0 (97a52f5)
C            4.63238504846306       -0.01877709011347        0.03449946620643
C            4.11158006828208        1.27341435213155        0.03393738928470
C            2.75971794796658        1.47611628494608        0.03240831957248
C            1.85692459317463        0.39300556248690        0.03094400372720
C            2.39408635881772       -0.91399190418728        0.03010259478720
C            3.79110357946679       -1.09329617813967        0.03194126260953
C            1.51437963600399       -2.02809972660608        0.02934574602282
C            0.17260700236260       -1.85789388961256        0.02914817045555
C           -0.41883487061731       -0.56398688490395        0.02955389430077
C           -1.85662597794744       -0.39147994951701        0.02948671838689
C           -2.75924138223353       -1.47473000891664        0.02730967220030
C           -4.11118490361477       -1.27248185194796        0.03239720697684
C           -4.63227007923086        0.01952482430309        0.04017779666986
C           -3.79108742933979        1.09406984822650        0.03901761666975
C           -2.39398583615216        0.91543584079305        0.03211734005949
C           -1.51435037489162        2.02959522245113        0.02969814345777
C           -0.17255165471820        1.85950699098776        0.02836109156213
C            0.41914039086876        0.56569801237110        0.03005469336204
H            5.69995821388053       -0.16759188437495        0.03576274720696
H            4.78153800889845        2.11772167451190        0.03203302003578
H            2.38569180913701        2.48321378261164        0.03147858153191
H            4.18806818877063       -2.09400712556128        0.03051634878524
H            1.93605590321258       -3.01870218972495        0.02917929232686
H           -0.45810395645782       -2.72783848589842        0.02771250041959
H           -2.38527026950433       -2.48173683861575        0.01787469962347
H           -4.78121755897010       -2.11687708711119        0.02798856220499
H           -5.69991081137323        0.16805871373188        0.04606199260536
H           -4.18841552712148        2.09462166573746        0.04243522396541
H           -1.93612070140045        3.02022542005922        0.02741762756829
H            0.45803458426697        2.72957289988058        0.02381827741349
