47
 energy: -10.358051660095 gnorm: 0.000471655342 xtb: 6.5.0 (97a52f5)
C            3.44282272773522        0.35992131964675        0.33892816083936
C            2.94902603571283       -0.92330883686242        0.12803922964147
C            1.60520434668478       -1.12694082017422       -0.02459089300445
C            0.68924906749900       -0.06407869641176        0.05112742497089
C            1.20450412983052        1.24472217883360        0.18733373630176
C            2.58806646931299        1.42692843718320        0.35788022546027
C            0.32176974065325        2.36314277274935        0.08302988464818
C           -0.98212585050522        2.19370335898692       -0.21759005501629
C           -1.54647486903782        0.88775542552327       -0.36415149489566
C           -2.87139329359272        0.72866115903878       -0.81605921016345
C           -3.41038758713273       -0.51658664974805       -1.00512317908119
C           -2.67589159228106       -1.63431877238442       -0.62649806304763
C           -1.41121256531934       -1.51805861548160       -0.04732216791020
C           -0.74804664314210       -0.25104869121807       -0.08261716791049
C           -1.00613463645190       -2.86503041191625        0.43379308305019
C           -1.84693656653491       -3.80362946064227       -0.16646019081277
C           -1.60549969874477       -5.16878689467769       -0.06499868986189
C           -0.52155808783914       -5.60129179218960        0.65263785844789
C            0.27274036443607       -4.69855064613898        1.38684266864897
C            1.37391630929267       -5.17071778554584        2.16777830927403
C            2.06204819553276       -4.34267410902004        2.98023910923007
C            1.66482951032369       -2.98108177593046        3.15087479940576
C            2.28981920378287       -2.15803415889144        4.10407177770700
C            1.82977981347635       -0.89360264712441        4.34715248517847
C            0.71753390934526       -0.41449370544440        3.66272842663279
C            0.10287727209516       -1.19100279389656        2.71936117446678
C            0.58328411973424       -2.47163918844136        2.39740132160861
C           -0.03392820243069       -3.31310300387997        1.38264142456458
C           -3.00115161609589       -3.08979189078187       -0.81209769787773
H            4.50218830539501        0.51292997368762        0.46576240210116
H            3.62846698821022       -1.75897194075150        0.08580204267636
H            1.23783894743907       -2.11795063164604       -0.21722432680046
H            2.97092568988296        2.42512138702681        0.48458941789439
H            0.72905692174451        3.35335256470842        0.19383039194584
H           -1.62238274780882        3.04889998619844       -0.35060544666038
H           -3.44427534310359        1.60572705752947       -1.06380647390331
H           -4.39594226900709       -0.64099971085462       -1.41917279325191
H           -2.25491176842713       -5.86454156616792       -0.56744190675810
H           -0.29471496487793       -6.65237290838316        0.70364778569236
H            1.64984945458367       -6.20863634272907        2.09334880209875
H            2.89121786425543       -4.71401309669680        3.55749611377999
H            3.12776103753110       -2.54514386411074        4.65816826737119
H            2.31428911402125       -0.27387429501892        5.08400754212520
H            0.34063335873061        0.57245986922591        3.87637446582638
H           -0.77307251420391       -0.82240784533584        2.21830160826299
H           -3.94796139866741       -3.34888405775238       -0.32555491807200
H           -3.07899668203275       -3.34396788409364       -1.87490526482384
