34
 energy: -7.640295317787 gnorm: 0.000382822743 xtb: 6.5.0 (97a52f5)
C            3.58433259747150       -1.78733737776615        0.05577830883642
C            2.44054712135813       -2.41597215720073        0.54121900322583
C            1.23248100112094       -1.77922540261306        0.49744958540619
C            1.09917112356292       -0.49362118173182       -0.06212874286893
C            2.28114711673688        0.17508405585684       -0.45652051223869
C            3.51031276032577       -0.51057596892394       -0.42217303526935
C            2.21896358903787        1.55401495580553       -0.79683233066402
C            1.06489320089120        2.24536979075347       -0.66739083554583
C           -0.15030918455135        1.61202543679288       -0.28322883841714
N           -1.22778383584933        2.41175438730603       -0.03227556637179
C           -2.31688086198701        1.81420435902903        0.35079220153986
C           -2.51960367228547        0.42215924286056        0.37563807145579
C           -3.78156120508111       -0.13363670892617        0.73942644805507
C           -4.01145762505321       -1.46066936059703        0.64053240454417
C           -3.02351980453024       -2.32704365369351        0.08839610526417
C           -3.29118516004104       -3.67799104857176       -0.17983974451410
N           -2.48847728547709       -4.49895310745111       -0.80747931284913
C           -1.34174389072499       -3.96141169346942       -1.23731846882440
C           -0.95257834955539       -2.67396235665793       -1.02051138441076
C           -1.76956092499355       -1.80767499557416       -0.28070032766806
C           -1.45896636417059       -0.41991839179832        0.00317846787911
C           -0.17292287978583        0.20737999612195       -0.13977786606918
H            4.53173251468880       -2.29996647552052        0.08525430125229
H            2.51214044804899       -3.40724018725245        0.95819536616723
H            0.36737765176691       -2.25440301109604        0.92461583400640
H            4.39992687097597       -0.00394762849300       -0.75462563896289
H            3.12396416840544        2.05703655563122       -1.09060029195066
H            1.04279788051825        3.30506053451211       -0.85221920271426
H           -3.14963096087059        2.44984297113532        0.60458409276725
H           -4.55272951005221        0.52533340532183        1.09935000541508
H           -4.96620089657618       -1.87151412713531        0.91951654544311
H           -4.24299543869504       -4.07867775596506        0.13102551053430
H           -0.69381716038956       -4.61749471298613       -1.79957747800008
H           -0.03593303423957       -2.30679838770257       -1.44656267445301
