63
 energy: -14.466256834588 gnorm: 0.000556471216 xtb: 6.5.0 (97a52f5)
C           -4.66992544023359        1.63473800656735        5.59995671526076
C           -6.00114639841283        1.23528066915307        5.55650787390223
C           -6.43777269143751        0.36646383009604        4.59375177306871
C           -5.57756033703106       -0.09015293571671        3.58117716926454
C           -4.19664634280152        0.22280483946663        3.70466801485416
C           -3.77706812172992        1.11574814249257        4.70812986833858
C           -3.23608064904052       -0.41064254170588        2.86002898320727
C           -3.61324195515809       -1.29970431947215        1.91573543600461
C           -4.99050963488581       -1.54340601728707        1.69419810121629
O           -5.53336738190765       -2.33420272366540        0.71689431348242
C           -6.88786358111769       -2.13226759242148        0.78125717744382
C           -7.85108474912349       -2.68101971524182       -0.10279872132965
C           -9.13229935396518       -2.27127663728107       -0.02923020935506
C           -9.54864630056411       -1.29104202670737        0.92467303295237
C          -10.84922038380783       -0.79108011084367        0.84960434681998
C          -11.27999502186254        0.16623383158456        1.75079786244903
O          -12.46388040045394        0.88588560778196        1.81151366224445
C          -12.35570801685174        1.72754775646834        2.90476722817973
C          -13.20928560135883        2.76960241955712        3.32488189107317
C          -12.85363641468930        3.54021948111290        4.38815241974466
C          -11.70484291483197        3.24715533250199        5.17613244890082
C          -11.31469733782134        4.09354012366862        6.25434783001658
C          -10.27262217588162        3.77757033425475        7.06505829127200
C           -9.63315783928169        2.52287038299058        6.92601839430043
O           -8.67908326996410        1.94914861633694        7.73710789339965
C           -8.55205177757996        0.64502459529127        7.31500845920634
C           -7.71948223290561       -0.37114970385769        7.84511801870834
C           -7.76379480939293       -1.61786271980760        7.32041071174725
C           -8.69246522047349       -1.96056926706550        6.29012032874041
C           -8.79820368448599       -3.28286525269387        5.82076380061125
C           -9.76803194343939       -3.63136720528042        4.92449260918152
C          -10.68691296923812       -2.68198481034494        4.48300313099857
C          -10.59706445534559       -1.38732958617599        4.90814743342110
C           -9.56751385667570       -0.97500003246613        5.76939554301496
C           -9.39960959861991        0.38422839397246        6.22138373293646
C          -10.01032630033464        1.63763333712817        5.89366763669333
C          -10.93521474938008        2.09032753589958        4.88516799318736
C          -11.17119710389455        1.46432560369630        3.62078016215217
C          -10.40852481965653        0.56919890125856        2.79697209657403
C           -9.07742960069542        0.16811124424018        2.80926359867927
C           -8.61757552031588       -0.78075857476589        1.89697320123816
C           -7.23738553681420       -1.24138851383595        1.81728083339482
C           -5.99453140041278       -0.91268148557608        2.46197637766281
H           -4.33829549137064        2.31858389172991        6.36398589443310
H           -6.68593702402263        1.60029386852320        6.30318770422605
H           -7.40952199444629       -0.07915905489329        4.69164948158695
H           -2.73477907101111        1.37719885008945        4.77174645243690
H           -2.19313139766173       -0.19161256593340        3.01051224100517
H           -2.89213262787422       -1.79397819241978        1.28991839835939
H           -7.52976719559545       -3.39032709940794       -0.84429877223743
H           -9.86175226610210       -2.66148924626093       -0.71802477030162
H          -11.51709223861015       -1.12286668236887        0.07696127332509
H          -14.09518819698566        2.97851604903455        2.75280527629147
H          -13.46573244107290        4.37982816198657        4.66869022352976
H          -11.85538646989935        5.01143622369968        6.40770501999252
H           -9.97225739887699        4.42589988895104        7.86823029677965
H           -7.05121562305677       -0.12626078318190        8.65089359881970
H           -7.12096843447794       -2.38827826575072        7.70933909185672
H           -8.11166190400552       -4.02422047844573        6.19174176061381
H           -9.83948269875416       -4.64795818604600        4.57431337361896
H          -11.47127845549348       -2.97179037734226        3.80319172879900
H          -11.33200870701750       -0.66976195756221        4.59499478819022
H           -8.40617246978329        0.67912874249596        3.46380947381108
