21
 energy: -4.655024775171 gnorm: 0.000856158974 xtb: 6.5.0 (97a52f5)
C            3.36598528074631       -0.21742874697764       -0.00033622871416
C            2.98014121396771        1.13191611378943       -0.00026136894359
C            1.65655437161131        1.48914861153626       -0.00033344845265
C            0.69453543047574        0.47797630167097       -0.00049181631914
C            1.07117711175539       -0.88714773270320       -0.00056692692607
C            2.43723016169313       -1.22308816869369       -0.00047760153426
N           -0.02552678099324       -1.68781722468848       -0.00062565851061
C           -1.07490564895466       -0.86477451641431       -0.00063930077468
C           -2.44854491087485       -1.20155408737298       -0.00079064397477
C           -3.36877397401494       -0.20334886609618       -0.00067096415454
C           -2.97130235833941        1.15366350985954       -0.00038946080647
C           -1.65982223446176        1.48778561817925       -0.00029077362830
N           -0.69798037694913        0.48913582629029       -0.00050994441420
H            4.41476196126003       -0.46422936381754       -0.00027194693056
H            3.73767183198464        1.89796853975912       -0.00014325808089
H            1.35001544589192        2.51969615846092       -0.00026209156960
H            2.72780670066181       -2.25804817724649       -0.00050087159210
H           -2.73881352509113       -2.23662777832831       -0.00098533967387
H           -4.41884313989093       -0.44479156582230       -0.00077388089122
H           -3.72204683854372        1.92614879906418       -0.00026419482075
H           -1.33676972193422        2.51290674955115       -0.00008427928759
