69
 energy: -15.802712523936 gnorm: 0.000974601158 xtb: 6.5.0 (97a52f5)
C           -0.83811166998763       -0.38310664990608       -0.45673184096833
C           -0.63907139381210       -1.64559959323934       -1.02263531970880
C            0.55459049487031       -2.30498601279851       -0.86671994081053
C            1.56726933815091       -1.68762357988376       -0.13200831150381
C            1.37654080490134       -0.41531937650856        0.44087009834874
C            0.14942925051756        0.23347281982844        0.26829140030880
O            2.51760231989718       -0.01226529912607        1.11608501423298
C            3.45912871255768       -1.02292328967602        0.98537548422079
N            4.69403260485617       -1.02930902190545        1.49232682874336
C            5.39390472033852       -2.13460644385159        1.22593675301863
O            6.68941445460253       -2.41050780019592        1.63565305547878
C            7.02139942011862       -3.66786734073058        1.15331309666623
C            8.19890237144102       -4.41074825996354        1.29178306442469
C            8.27859932075751       -5.65156376837362        0.71853359282543
C            7.20649655858632       -6.19643421298989       -0.01009735967963
N            7.32346576878632       -7.51370753582163       -0.58395388967812
C            7.18195174565384       -8.72887992467115        0.11153644677632
C            6.87941247619107       -8.98367923865756        1.44846079984277
C            6.80110342097434      -10.28871341617590        1.86796965706493
C            7.01868489404551      -11.34636679181819        0.97904742447656
C            7.31780147872702      -11.11195230243181       -0.34128582030268
C            7.40050700969232       -9.79055301627801       -0.78340770999460
C            7.68965219945611       -9.21027410663280       -2.07265243426471
C            7.99606819673047       -9.77613282772666       -3.30840309773926
C            8.24490453517967       -8.94624309668192       -4.38571994462777
N            8.58099066316017       -9.51116226806074       -5.66599420695065
C            9.72746613454809       -9.21072066489904       -6.42729404270443
C           10.78234247505201       -8.33157245898513       -6.18281027130178
C           11.79654933100839       -8.24488662090226       -7.10402985947410
C           11.78300861987658       -9.02156700466925       -8.26672372612789
C           10.75551965413769       -9.89717704087708       -8.52032421482868
C            9.71653009983372       -9.99691612743836       -7.59265409810969
C            8.52621321679701      -10.81044570138625       -7.54903309815929
C            8.00647506554720      -11.76603940159511       -8.42463810916548
C            6.82353705143015      -12.38340522212266       -8.09877918260969
C            6.14717495351946      -12.06526089822317       -6.91697565744552
C            6.64596040285093      -11.12890256251279       -6.04552673516997
C            7.84874445742474      -10.49556598204240       -6.35808340352288
C            8.18176428954212       -7.54943074655890       -4.22466021703433
C            7.88256600238598       -6.97925954952401       -3.01436460773982
C            7.63438830509786       -7.81368021352954       -1.92468813776898
C            6.03920491998185       -5.47399430383780       -0.16035635600656
C            5.94747074637708       -4.21257733338960        0.42281326716323
C            4.90129605466708       -3.23551670657604        0.46328920037209
C            3.62507711684946       -3.22589273240412       -0.06167064010977
C            2.89948072020560       -2.08367266379447        0.21244708034905
H           -1.78510072825243        0.11307842052754       -0.59269502619320
H           -1.43282632798906       -2.10575081929013       -1.58759237818999
H            0.72052192907818       -3.27609188234985       -1.29851358972853
H            0.00163365250937        1.20342631672986        0.70790106665105
H            9.01948063188890       -3.99633986114966        1.84923168967625
H            9.17547400072530       -6.23768588077452        0.81734683356853
H            6.71379217277927       -8.16295559105768        2.12326783102534
H            6.56781016420951      -10.50253337884168        2.89800254387794
H            6.95039689171790      -12.36057138440017        1.33648228872265
H            7.48649675924252      -11.92019458152726       -1.03060905144722
H            8.05415964629043      -10.84228903574172       -3.42025803379279
H           10.79043252698912       -7.74420372769310       -5.28238413156795
H           12.61734783932399       -7.56915245243832       -6.92847391553374
H           12.59251153276342       -8.93285879923437       -8.97231185963736
H           10.74051800993920      -10.50139977787558       -9.41005109345687
H            8.53187357506128      -12.00453426072314       -9.33242024693722
H            6.40900988009372      -13.12325198873543       -8.76353699797465
H            5.21945142783196      -12.56333056520895       -6.68801887778422
H            6.12821417301117      -10.87450701629527       -5.13821417603094
H            8.36929497866380       -6.92779786893228       -5.08238437043073
H            7.83655489704737       -5.91218988468238       -2.88994693829576
H            5.21456853868675       -5.88451022811914       -0.71195622941119
H            3.22747451486237       -4.04230946264981       -0.63463536792002
