38
 energy: -8.089391560378 gnorm: 0.000856139835 xtb: 6.5.0 (97a52f5)
C            2.16278107890678        1.76093775770678       -0.48265512499671
C            1.69668761532045        0.48895169367092       -0.82107700559855
C            2.54733823594941       -0.57726672342996       -0.84687640925452
C            3.91493811917861       -0.43276732204116       -0.52512945823029
C            4.86557520579186       -1.50819951896997       -0.51859622753514
C            6.20428897414435       -1.24193812509751       -0.29412295221863
C            6.66115556232953        0.06150631949173       -0.01270000483226
C            5.77121679231150        1.08682365260064        0.03624635968961
C            4.39059047792828        0.87289231729606       -0.21909345751723
C            3.48096377082638        1.95116895588058       -0.19405853516733
C            6.98710003523190       -2.46271873477690       -0.39817783388828
C            8.35336239862409       -2.34643103871728       -0.23511548620420
C            9.29559850601042       -3.30897639692866       -0.31107057967634
C           10.56541210875799       -3.71299360714339       -0.26204816436405
C           10.84627599516736       -5.08301867329035       -0.47338241746461
C            9.83992231433541       -5.97441252212868       -0.71966835666953
C            8.54064567546741       -5.51324475002711       -0.75949227445100
C            7.25486380062611       -5.87179911872579       -0.92758141184159
C            6.14808664693982       -5.00016490498301       -0.88057951238005
C            4.90900619626192       -5.68341371585131       -1.07300037026675
C            3.69947039134188       -5.06539362613527       -1.05702418084810
C            3.61883035557888       -3.69102768333982       -0.86923324114111
C            4.76640783295306       -2.95013396201003       -0.71075644708223
C            6.08228595302535       -3.55383185538778       -0.66907889358466
H            1.47918496595924        2.59403530209780       -0.46294321778522
H            0.65705936483398        0.35400871755905       -1.07197914989397
H            2.16949093837838       -1.52936017661363       -1.16056803307380
H            7.70890524468103        0.22706431397013        0.16711750658074
H            6.10857242155778        2.08491162864319        0.25676470857906
H            3.84530459480408        2.93411159692470        0.05104149891267
H           11.61835026960224        1.96007869230509        0.10009273863869
H           11.35387308089497       -3.00595003660246       -0.07174583893363
H           11.86855816687675       -5.42270401230394       -0.44176834516624
H           10.04257974054341       -7.01899072516571       -0.88033703711941
H            7.06459443547327       -6.91605289773565       -1.10666479832313
H            4.93720774509233       -6.74928294292308       -1.22797357097511
H            2.79688818783101       -5.63986637702618       -1.19045270970914
H            2.65224680036430       -3.23190150125535       -0.81302176626776
