38
 energy: -6.677705940009 gnorm: 0.000963153250 xtb: 6.5.0 (97a52f5)
C            2.83352956178044       -2.70025961524439        1.01253873579466
C            2.03057298307454       -1.63304330984738        0.59566533700619
C            2.58910180292138       -0.53786999413493        0.00409241476657
C            3.98364400540841       -0.46412918879422       -0.19640330566045
C            4.58363523943438        0.63199130072734       -0.79312742675076
C            5.92382713220704        0.69602143579316       -0.98161803846026
C            6.75150661149368       -0.37114982644545       -0.56857218732996
C            6.20109583689767       -1.46676536125957        0.02186170653399
C            4.79839522793904       -1.54517459829901        0.22547937374710
C            4.18602457207521       -2.66096550055225        0.83355539637649
C            6.36414153850253        1.87692360135489       -1.61147463068113
C            7.61265586362153        2.20605737773735       -1.94504495134964
C            8.07523793621291        3.31211497450484       -2.55769816132034
C            7.52507539596673        4.42378606747467       -3.05556618237972
C            6.20158919606501        4.81333185428003       -3.09874123673801
C            5.09679690915855        4.26374614278634       -2.68823909078363
C            3.82572107527550        4.73861760941529       -2.77506266926033
C            3.32750491259984        5.93460412065916       -3.08400970038606
C            3.87859974572278        7.18668808704159       -3.16483001827937
C            3.11393803467647        8.27062971175561       -3.59123420252126
C            3.62306324575138        9.47233227465222       -3.65538555752943
C            4.89641521622293        9.70516215329968       -3.31137829343925
C            5.66529412761456        8.72675123599591       -2.89398464911110
C            5.18661397422169        7.46944117363619       -2.80574077603242
H            2.37761645433100       -3.55879665001717        1.47822590500338
H            0.96396137246326       -1.67936679171366        0.74346112051326
H            1.97393442477065        0.28474124824926       -0.31801058921814
H            7.81379675069005       -0.30460295011890       -0.72758246924270
H            6.82228013398700       -2.28575703724914        0.34061747326390
H            4.80184870260382       -3.48306604762630        1.15558782757519
H           13.33066806713274       -0.27753680907515       -0.36772564717201
H            8.21732374804788        5.12696405520145       -3.49208931689896
H            5.32127337114596        7.86668848036364       -5.95670148787484
H           -1.98445859710424        1.34319719297570       -2.51715337400301
H           -1.04647513532777        5.64921037635675       -3.63050696769101
H           -2.81905876122367        9.34094290050637       -4.69704613730746
H            5.15296536338526       16.29440529228609       -4.80660561891900
H           11.24430396112940       11.01603501671312       -1.62303260368325
