38
 energy: -7.564129262510 gnorm: 0.000724749172 xtb: 6.5.0 (97a52f5)
C            4.65360664557958       -1.49868054320971       -0.31627951246460
C            3.67950383109821       -2.49645098650934       -0.24568440236843
C            2.35793201687057       -2.16998207225498       -0.15699472091907
C            1.93415288983718       -0.82297288588316       -0.14265924635391
C            0.56301709421148       -0.40503240153235       -0.06645252877329
C            0.26907447999246        0.95484292768517        0.02385127274372
C            1.27223350706600        1.94189889076805        0.00168072578275
C            2.57162707903258        1.56185929105923       -0.11060462488365
C            2.93436387537783        0.18949466980676       -0.18306459169699
C            4.29100675738548       -0.18558927096433       -0.28048645150982
C           -1.16815431286594        1.11547422180683        0.13068380389413
C           -1.84505085187641        2.30997876758926        0.25742888900995
C           -3.17434295021203        2.51806254506530        0.35169833464642
C           -4.07901420763639        1.58111614752962        0.33220677831401
C           -5.45405772352924        1.59906558216578        0.40696934998319
C           -6.16187778274358        0.43443812321829        0.34632369505462
C           -5.47941841419969       -0.75327459130610        0.20666641492247
C           -5.72581108043877       -2.08118503024731        0.09842903990936
C           -4.67607168182808       -2.92976698656246       -0.04152537297650
C           -3.39160766948808       -2.48862705941317       -0.07047567573487
C           -2.22570817137154       -3.11083842677958       -0.22911188173370
C           -0.97137598760504       -2.46751139596966       -0.22789127037514
C           -0.72738033726705       -1.11161489386480       -0.06191571805893
C           -1.71674810344866       -0.13903196155427        0.07977125125801
H            5.69397922862233       -1.77060716420178       -0.38967283476374
H            3.97855740084082       -3.53207189595230       -0.25571123422709
H            1.63936621240724       -2.95880591945810       -0.06187290403293
H            0.99645866963047        2.97980587944536        0.06637353430318
H            3.35009177710856        2.30484318429988       -0.13536661337124
H            5.04187362618719        0.58471767609334       -0.32258859367114
H           -0.33384515629480        7.61027983980102        0.24345222332070
H           -6.01605044161923        7.52642648504024        0.66674974327359
H           -5.96089670601383        2.54348483040182        0.51170807193866
H           -7.23682499291052        0.43027102284651        0.40131672060763
H           -6.73408986796893       -2.45520995656365        0.11469841626239
H           -5.46669500182585       -8.24364294781850       -0.79926120896591
H           -2.24796385923147       -4.17895655969962       -0.37104570398695
H           -0.12484979148645       -3.10150713559052       -0.40302317446045
