102
 energy: -23.067413498935 gnorm: 0.000888895522 xtb: 6.5.0 (97a52f5)
C            4.44273586601436       -0.44624463589284        2.24064826127576
C            3.22593457701490       -1.13414904425524        2.29172305648486
C            2.11804227995159       -0.62011401386462        1.68342678944887
C            2.17661338945419        0.60412633379914        0.99565102050849
C            1.01760667859386        1.14561235147707        0.35151404021805
C            1.12172480738451        2.35407162922131       -0.32293707498390
C            2.34819584784167        3.02637800165053       -0.36082673241002
C            3.46081387025845        2.52725227743383        0.25069214311053
C            3.40424395975432        1.30133933399061        0.94319013014014
C            4.53420224505099        0.74427527103844        1.58308733452141
C           -0.07427328597636        2.93939430367959       -1.06070345312060
C            0.22103485254939        3.01294010682660       -2.56184066470826
C            0.46210331828675        1.99728250003339       -3.45576540896577
C            0.69829257521139        2.29940771758810       -4.80024173549914
C            0.93467913952464        1.20732844581075       -5.77324645546214
C            0.00518623722424        0.16859608443794       -5.87137734172741
C            0.16264745693872       -0.86337781602284       -6.76325255222370
C            1.27326783250398       -0.91477233363568       -7.60915556425178
C            1.46213680213693       -1.97386292494604       -8.54953879091671
C            2.54768545542498       -2.01262668071079       -9.35435077349477
C            3.55083829650274       -0.99558255886922       -9.29193982554611
C            4.68358574740618       -1.01563111020309      -10.10772657288795
C            5.63669777545674       -0.02233713787468      -10.01660799999719
C            5.49222252865254        1.01249644662070       -9.11606164221280
C            4.37692406541182        1.07982085039969       -8.27869410026082
C            4.19749212469574        2.13020707554523       -7.32700039291902
C            3.10708973453336        2.17243937364515       -6.52884102065440
C            2.08250251800549        1.17874730416097       -6.60286282788522
C            2.24307419540016        0.11328689136250       -7.52411460308661
C            3.39220565693591        0.06675556784178       -8.36812506429685
C            0.67035339079377        3.64170699063466       -5.20709194602326
C            0.42869864957669        4.66098156768340       -4.31331146594899
C            0.20198507347420        4.34638247176025       -2.97920104902493
C           -0.10053074839988        5.20621562704508       -1.83196416905717
C           -0.24267118314450        6.58544166730833       -1.75089262125301
C           -0.55190811236614        7.15279720016719       -0.53551914205824
C           -0.71940153586019        6.37260926287803        0.61813540317931
C           -1.07746234761901        6.99632477446448        1.91356680348161
C           -2.21113494132458        6.54946219696487        2.59744007252645
C           -2.61253585216605        7.11518620136622        3.78251555692716
C           -1.89092021255482        8.16571031864569        4.35490366955625
C           -2.29091900628459        8.78201586584763        5.58038935638411
C           -1.57686917656997        9.79342074139337        6.12335259871891
C           -0.38999381358533       10.28184896556323        5.49281538775029
C            0.36843846746526       11.32049605185413        6.03585543319892
C            1.51293536423887       11.76345370479631        5.40548248062405
C            1.93419470059159       11.18862792055396        4.22449726481814
C            1.21043877438837       10.14792629842899        3.63922179529563
C            1.61937505284084        9.52273893381549        2.42145416397610
C            0.89726482691224        8.52001674073980        1.87298874048387
C           -0.30685553216494        8.04291382359762        2.47725944496915
C           -0.72500370821720        8.62865114999270        3.69852103812362
C            0.03298258498009        9.68943076528344        4.27745996285604
C           -0.57948552234870        4.98448889967104        0.52040438634032
C           -0.27231700631928        4.41442851023056       -0.69238431680714
C           -1.35225683299923        2.14771247088270       -0.82085547583613
C           -2.55943567621143        2.61655005445736       -1.35022727338705
C           -3.72702494693258        1.92784468875830       -1.19781779040517
C           -3.74677760310805        0.70547881201627       -0.49729589042124
C           -4.93200745186708       -0.04343417737087       -0.32238022253083
C           -4.91247299953456       -1.22420590134568        0.35815633792488
C           -3.71597089250655       -1.71176393117466        0.89423267951692
C           -2.55612127229776       -1.00976676808068        0.74122549326024
C           -2.53967213604779        0.21086645570817        0.04513810007005
C           -1.32425943091120        0.95031891896164       -0.11999014379306
O           -0.16579199556383        0.42147760497471        0.43725843627273
H            5.31113933796003       -0.86165420129624        2.72537655035491
H            3.16612612808886       -2.07490402458649        2.81398450308517
H            1.17954850281026       -1.14533167372348        1.71829138687645
H            2.40366659215552        3.95943631845700       -0.89435151994815
H            4.39402327910511        3.06134826838411        0.20656469863054
H            5.47029106038808        1.27406018224547        1.54281441992404
H            0.47247299061098        0.97706085243022       -3.11850813114854
H           -0.86191855323637        0.19534202504765       -5.23381464117770
H           -0.57409192243218       -1.64599919039563       -6.82037059018899
H            0.71773607231060       -2.74909018512224       -8.60687948529515
H            2.67388042745972       -2.81805456538479      -10.05694088438929
H            4.80662144312208       -1.82044057822051      -10.81178180903268
H            6.50456185211217       -0.05634905888101      -10.65477311576983
H            6.24306783636278        1.78085606646395       -9.04972734780615
H            4.95434562981222        2.89173580112840       -7.25210359390045
H            3.00622079817646        2.96328863640691       -5.80739322079115
H            0.82528840886628        3.86844208557759       -6.24785351386841
H            0.40467687112646        5.68776956959811       -4.63326962245400
H           -0.11873762131165        7.18999685517735       -2.63190866110845
H           -0.68770772246887        8.21802154714679       -0.46140970318012
H           -2.78831475378502        5.75027790707238        2.16475287832115
H           -3.49567849829377        6.75542741034849        4.28169865319264
H           -3.18075469622726        8.42472169065474        6.06918558009267
H           -1.89365685955178       10.24661320883317        7.04663170995224
H            0.04905214740379       11.77407332213767        6.95824928019573
H            2.08506055522666       12.56610709749103        5.84133223156691
H            2.82997117869298       11.53906959572547        3.74151352949307
H            2.52249159975604        9.86423301759114        1.94595352327822
H            1.23786867095056        8.05415305994937        0.96583811143816
H           -0.70642875912773        4.36418325774466        1.38855706892905
H           -2.55250534186162        3.54487985663793       -1.89463256362904
H           -4.64320185828672        2.30776314005264       -1.61521261083274
H           -5.85220491461503        0.33206000661773       -0.73565895450592
H           -5.82226427028290       -1.78768653987254        0.48512960075271
H           -3.71305538989517       -2.64671373649004        1.42987413284946
H           -1.63255371760598       -1.38062151372316        1.15024683217316
