24
 energy: -3.939940824709 gnorm: 0.000654233617 xtb: 6.5.0 (97a52f5)
C           -3.61297883524165        0.69109962199065        0.04202530054830
C           -3.60422668590495       -0.71525623745667        0.04197208015928
C           -2.43408297915495       -1.39878974617462        0.04123935939914
C           -1.19316372853277       -0.70726159145240        0.04230187855860
C            0.02450430455369       -1.36724955742807        0.04651273787755
N            1.20261308871813       -0.68655906968782        0.04091874553042
C            2.41642129837254       -1.37080437594001        0.04927682769022
C            3.59383642639075       -0.71390088034950        0.04447076293073
C            3.61509667477603        0.69079328443609        0.02976128700967
C            2.45604307193873        1.38652934292297        0.02292291291497
C            1.21288225450471        0.70826478853017        0.03186226727913
C            0.01059158673738        1.39626032958943        0.03385536624186
C           -1.20215822387418        0.71558910751945        0.03946869748916
C           -2.45062199839203        1.38940033534702        0.04030043957197
H           -4.55526028419552        1.21502896162337        0.04290807488364
H           -4.53993495250479       -1.25075456122193        0.04139331211233
H           -2.43259457638664       -2.47525333596842        0.03997462015143
H            0.05057308490235       -2.44184281522450        0.05562403927077
H            2.38979734821220       -2.44738379346087        0.06112047501259
H            4.52211342340460       -1.26226974812585        0.05096236454132
H            4.55980202211472        1.21031270423616        0.02381185484400
H            2.46667833804712        2.46300706371180        0.01205713282891
H            0.01387788782711        2.47107006493683        0.03153249378050
H           -2.46343854631261        2.46579010764671        0.03944696937342
