38
 energy: -8.587207450474 gnorm: 0.000697566441 xtb: 6.5.0 (97a52f5)
C            0.86403857518259        0.04968780221957       -0.08197940268618
C           -0.35671733379249        0.06184496278484       -0.05527011593981
C           -1.76903071465737        0.09590153084564       -0.04011033786770
C           -2.44010717442077        1.31369086580333       -0.03658505376525
C           -3.83243924439455        1.37812183544325       -0.03395597778057
C           -4.54182601683267        2.62263365793594       -0.03522775311621
C           -5.89217458175074        2.65951068997221       -0.03877430420975
C           -6.66846937699985        1.45570885796013       -0.04101696664058
C           -8.06378968515489        1.46548791387344       -0.04673227440930
C           -8.77774687104937        0.28462686192575       -0.04933194151486
C           -8.12851817253925       -0.93305971094158       -0.04642525543408
C           -6.73467205854931       -0.99871597482178       -0.04078974031854
C           -6.02421433154276       -2.24255758786909       -0.03845289612592
C           -4.67375913530587       -2.27859149864793       -0.03507735034932
C           -3.89798651499325       -1.07423196639715       -0.03394924121575
C           -2.50390455023460       -1.08459255451511       -0.03671303124655
C           -4.57124278350321        0.17089742121278       -0.03435287164824
C           -5.99605128098551        0.20942342363666       -0.03812123753834
C            2.27640143699023        0.05451720948510       -0.12844834345742
C            2.98076394893668        1.25411410692036       -0.15161869448446
C            4.35935847630122        1.26118283081028       -0.19507707251210
C            5.05666138531973        0.07050876045581       -0.21669375490322
C            4.37286664459855       -1.12806914852503       -0.19584141360569
C            2.99417076716537       -1.13705623348293       -0.15228071987331
H           -1.86983160189930        2.22520552557588       -0.03886519245329
H           -3.97493883268795        3.53755649331320       -0.03431653253036
H           -6.40799400355699        3.60415200383965       -0.04082001298543
H           -8.58050692984800        2.40976032903347       -0.04952141898874
H           -9.85516198480975        0.31375716514116       -0.05396089318571
H           -8.69544424448494       -1.84805877528633       -0.04885958511642
H           -6.59021345541805       -3.15803639616807       -0.04031369419306
H           -4.15724255528806       -3.22284704783334       -0.03428501296635
H           -1.98309274928589       -2.02522865418807       -0.03910609351716
H            2.43288179055708        2.18095880668304       -0.13486840363574
H            4.89218527750633        2.19799647925237       -0.21140205127614
H            6.13404799835740        0.07675459071717       -0.24989583640527
H            4.91660660847285       -2.05856537640695       -0.21378100693010
H            2.45703327459933       -2.07015919975580       -0.13620851517487
