39
 energy: -8.440130629653 gnorm: 0.000343914334 xtb: 6.5.0 (97a52f5)
C            2.35758872816564       -0.64226109106101       -0.13545969559057
C            2.31366432235183        0.69386307942567       -0.55227666723946
C            1.12811825763753        1.36186597144641       -0.60553633053538
C           -0.07719581794278        0.71940883677819       -0.24030155037485
C           -1.32078486753299        1.38229697784743       -0.28061593158011
C           -2.48343569842013        0.74935420792081        0.09224084931435
C           -3.77726339929629        1.46182364423825        0.05650518152543
C           -4.71354607303740        1.32141008038240        1.06471570857675
C           -5.91650835952906        2.00779025130436        1.00951754147321
C           -6.85958775113872        1.84701693573598        2.10139616087527
N           -6.64324506938890        1.09855521980235        3.15061373885456
C           -7.69766684302476        1.14183417566410        4.01757998016193
C           -8.74189207498687        1.92067971140404        3.65442156557897
S           -8.41809847350531        2.65692408443565        2.13647699647980
N           -6.24167032618300        2.81918761710851       -0.00510829050238
C           -5.34327380682528        2.95748888306804       -0.98891792896848
C           -5.66915477742258        3.82029217764586       -2.11021623586176
N           -4.88071267482291        4.02097037544788       -3.13292033060966
C           -5.44606392336603        4.87575075785956       -4.03587915715242
C           -6.67589598606916        5.34671336443616       -3.72823018773448
S           -7.18502088828574        4.70161514445291       -2.21983556860641
C           -4.11855854849228        2.30772736897661       -0.98330731075980
C           -2.41879633462456       -0.59815470941772        0.51628472422611
C           -1.23638898965639       -1.26744632429448        0.55858262870612
C           -0.03141568943479       -0.62944756792149        0.18458229774471
C            1.21502162783049       -1.29163866190289        0.22446553609359
H            3.30339644791394       -1.15740198392181       -0.09939019717797
H            3.22636857055369        1.19430466217622       -0.83112295312026
H            1.09554042936811        2.38912348573304       -0.92483448821587
H           -1.35477610726634        2.41001092616014       -0.59276929284410
H           -4.50557868253679        0.69021308878188        1.90846467705637
H           -7.67224377547559        0.57664488511084        4.94096143891001
H           -9.64288683105990        2.06801272960898        4.21871390930104
H           -4.91799593571338        5.14365545011571       -4.94260099166258
H           -7.25916672227055        6.02067247716921       -4.32616142186391
H           -3.44021629705555        2.45494550788575       -1.80297491369959
H           -3.33085360561521       -1.09712698488550        0.79434699212566
H           -1.20423408436863       -2.29452109004147        0.87844624198486
H            1.25029003052289       -2.31832366467965        0.54524327511342
