31
 energy: -6.831421471725 gnorm: 0.000761124698 xtb: 6.5.0 (97a52f5)
C            2.42454253947357       -0.70870477574771       -0.03269513167765
C            2.43053221535161        0.68273908193534       -0.18956038157369
C            1.25997310120153        1.37912980360710       -0.22110519297983
C            0.02074759411850        0.71019004633169       -0.09446152680410
C           -1.20790688676449        1.40027264985884       -0.10963464801137
C           -2.39941384647937        0.73520348678103        0.03568277367573
N           -3.63950046990108        1.46424810682715        0.05270377945793
C           -4.02765610416738        2.50037513024676       -0.79833669323251
N           -5.20012239037969        2.99356647071228       -0.51335695349682
C           -5.65102464787556        2.29154622428241        0.57633975480946
C           -6.83759478557924        2.41600204349569        1.31275697561025
C           -7.03468770977135        1.59475360922898        2.39304555006298
C           -6.07499884582017        0.64469548082620        2.76801850483131
C           -4.90778586548783        0.50241583857331        2.06361734565311
C           -4.69395894394687        1.32642848337225        0.95575642789396
C           -2.39305131979120       -0.66607284744274        0.18600291564605
C           -1.22553315135116       -1.36334008078519        0.19959048671335
C            0.01525324588385       -0.69690328932145        0.06516597494420
C            1.24743594999169       -1.38566490074045        0.09063448745661
H            3.35881144335352       -1.24531513974013       -0.00882597560930
H            3.36916081208761        1.20375243019986       -0.28419562470208
H            1.26592922207403        2.44886039592810       -0.33960437366677
H           -1.21292882040937        2.46907344820683       -0.21696854006385
H           -3.42030062767475        2.85439816066111       -1.61792708218713
H           -7.56672825416502        3.15184903699313        1.02496649199420
H           -7.94179887316369        1.68342069563936        2.96790256375679
H           -6.25775935801082        0.01890673191348        3.62602091646313
H           -4.16042715169280       -0.21452874499687        2.35191189388928
H           -3.33460727837408       -1.17809491254345        0.27901879801624
H           -1.23272344669100       -2.43336017083286        0.31486171737921
H            1.24510265396115       -2.45519249347068        0.21122476575061
