38
 energy: -8.525985922911 gnorm: 0.000870264448 xtb: 6.5.0 (97a52f5)
C            4.94311209076793       -0.81708918742461        0.01757551214073
C            4.98912756847135        0.58086143326853        0.09110036372324
C            3.83865536310178        1.31039912145774        0.10828578059359
C            2.57753020714907        0.67416830589744        0.05284582480459
C            1.37478227362060        1.41797322194260        0.06920965405314
C            0.17622333719805        0.75735982874892        0.01464726429543
C            0.12809575607085       -0.67050071828997       -0.05792053343561
C            1.28119386037245       -1.40972219610701       -0.07590818927492
C            2.53044188287324       -0.74844817374664       -0.02082633363692
C            3.74725667595615       -1.46769382516409       -0.03695971411599
C           -1.28389827755502       -1.07654504130757       -0.10360732827979
C           -1.94774942563467       -2.28472639984816       -0.17521801798300
C           -3.34398434588792       -2.28118383449763       -0.19513143899324
C           -4.07580849462897       -1.10950287410190       -0.14336757504830
C           -3.43427718156182        0.13941000087412       -0.06949741017118
C           -2.04211380090779        0.10466557701359       -0.05541769702703
C           -1.20492902583172        1.25585442554469        0.01747190488975
C           -1.77724972252808        2.49042761063013        0.08080444924239
C           -3.20649655947300        2.60985497468932        0.06941510478782
C           -3.81040136685303        3.87866841205074        0.13196822694967
C           -5.17095001296829        4.01171612074027        0.12369488771647
C           -5.98601919557170        2.88588009716558        0.05335117390347
C           -5.43419406473901        1.63459259680642       -0.00879717095844
C           -4.04289842384858        1.45764976846136       -0.00380787679102
H            5.86274256592088       -1.37904683193582        0.00427582646463
H            5.94352286889681        1.07982599755209        0.13439633536510
H            3.87689644237910        2.38465491874671        0.16497820355285
H            1.39985157908017        2.49054583586118        0.12411222752726
H            1.23630102031006       -2.48158411636902       -0.13170972305389
H            3.71521306038032       -2.54213920971559       -0.09389696660195
H           -1.39066099156785       -3.20407157391168       -0.21359197669661
H           -3.86463444191809       -3.22303365508269       -0.25184883542742
H           -5.15012340519416       -1.14967101007404       -0.15974016347184
H           -1.16193571590392        3.36887623118242        0.13999575745472
H           -3.18206906813106        4.75106232013117        0.18721082465455
H           -5.61659219644904        4.99193103372415        0.17234597485092
H           -7.05752651864750        3.00307601770992        0.04817775929830
H           -6.07406431674760        0.77202479737723       -0.06265610530144
