48
 energy: -10.884384439718 gnorm: 0.000181877093 xtb: 6.5.0 (97a52f5)
C           -4.78564283221616       -3.18289730791593       -1.60932596379815
C           -4.05972202480819       -3.92805593200020       -0.66384567754490
C           -2.87339903144954       -3.47014200445912       -0.18590071554928
C           -2.34077390171168       -2.23094883201189       -0.62730237522468
C           -1.12286966863875       -1.74242134091280       -0.13843973321725
C           -0.63829525918264       -0.52176418915750       -0.58205607323934
C           -1.39127694099189        0.24192605495383       -1.52813083568284
C           -2.58974388292497       -0.23903856503834       -2.02525668402663
C           -3.08131274406985       -1.47180185924749       -1.58658447342128
C           -4.31420016538946       -1.99146465234476       -2.05982441219506
O           -0.74681353907064        1.43450904606689       -1.79311881394194
C            0.39268429416262        1.43734547754570       -1.02084066027171
C            1.37296160304832        2.47390168312361       -0.89780090875889
O            1.39365811970678        3.70060761540013       -1.52201019558104
C            2.50306041464579        4.36415262112579       -1.03546109138631
C            2.96198710016074        5.63758624859599       -1.32293018595741
C            4.10101767368151        6.12936987805899       -0.67915241124520
C            4.59324432269559        7.43578280875067       -0.93402131533539
C            5.69104189073527        7.90420250811968       -0.28581760526047
C            6.36453536738838        7.10221885119300        0.65193790609809
C            5.93029830364761        5.84411582255568        0.92418300273538
C            4.78796756648426        5.31170040478472        0.27180342820852
C            4.32382103881770        4.01973906906585        0.54788332776961
C            3.19653935069169        3.53624790217820       -0.09793689669282
C            2.45856715066331        2.30579390992237       -0.03054182634139
C            2.63988702139406        1.07791847779034        0.71218566183885
C            3.75230092506771        0.85375418280526        1.53610050240403
C            3.90737687148400       -0.32273395081328        2.21624791039247
C            2.95785716730740       -1.32850164506175        2.09546854883368
C            1.86311018833405       -1.14732611906512        1.29579520036357
C            1.66687349616452        0.04785760345442        0.58898559588383
C            0.52617855690060        0.26090219146708       -0.27449011438663
H           -5.72517772890816       -3.56298414774520       -1.97564870260658
H           -4.45214578944711       -4.86980069392112       -0.31682873644166
H           -2.32207092548315       -4.04359812585336        0.53906607544868
H           -0.59322181188691       -2.31697735294254        0.59415046662691
H           -3.14041509031963        0.34672333544980       -2.73666067793790
H           -4.87446979243541       -1.42282818673218       -2.78168702964043
H            2.42997927479055        6.24453529319735       -2.03079577980537
H            4.07910505638352        8.05390295010273       -1.64951633150878
H            6.05126605397944        8.89960816563694       -0.48782108066898
H            7.23183467920961        7.49339018381370        1.15800098120237
H            6.44855656932208        5.23415187254843        1.64374202592847
H            4.84159269292560        3.43066187920440        1.27741426762221
H            4.50775486678259        1.60918213190561        1.62301022578946
H            4.77159420938931       -0.47471088139437        2.84212022477285
H            3.08974322223400       -2.25609079247198        2.62825512867719
H            1.15309608077696       -1.94415158971902        1.19616682702500
