45
 energy: -9.823920559645 gnorm: 0.000227471824 xtb: 6.5.0 (97a52f5)
C            3.59066751906254       -0.64196776729285       -0.10967064662112
C            3.55727897758390        0.70470302155833       -0.51798408550291
C            2.37626406099277        1.36428170527161       -0.62886667566412
C            1.14858767272927        0.71088731895784       -0.33366984329655
C           -0.07834154131378        1.36352736867436       -0.43399795801837
C           -1.27217469005221        0.71135391622031       -0.12970121457770
C           -2.52633372229909        1.36692156960576       -0.21294821455978
C           -3.69399722044810        0.72670945972620        0.11327588096534
C           -4.98909896764660        1.43375500226473        0.04956085099378
C           -5.30458862812665        2.29930947284329       -0.98270097675985
C           -6.53221873016390        2.94331257179213       -1.01039680269576
C           -6.83172551277792        3.82678038903085       -2.12297204348231
N           -6.01092133595889        4.06380193527065       -3.11244227635596
C           -6.55933023225260        4.92923090207196       -4.01558628235931
C           -7.80649769872746        5.37434635000169       -3.74003728150502
S           -8.35728098266598        4.68687037431484       -2.26563346147988
N           -7.45750174839458        2.78198353077843       -0.05492708873091
C           -7.15722892737418        1.95202514383956        0.95257699760598
C           -8.12904311210613        1.76510549689608        2.01469885940974
N           -7.94404499886567        0.98235452098337        3.04534993781323
C           -9.01978529046115        1.00643084895220        3.88625099767662
C          -10.04980662294982        1.80316479470154        3.52054851402168
S           -9.68266626545196        2.58513666494617        2.03584003804653
C           -5.95359689950772        1.26919041360545        1.02739621842911
C           -3.63894202766009       -0.63154028107544        0.53029039094146
C           -2.46198184368170       -1.29691681924692        0.61281205852281
C           -1.23591350827043       -0.65186999977822        0.29160318436935
C           -0.01151689739642       -1.30626498027179        0.38461823655540
C            1.18312568351008       -0.65360246911258        0.08242145609181
C            2.44225333764737       -1.30444334183290        0.18178477850380
H            4.53888685200855       -1.14729627734602       -0.02799137640700
H            4.48059531259285        1.21283947325054       -0.74269279332683
H            2.35507379380125        2.39429553154294       -0.93984853810513
H           -0.10446862389477        2.39153476791810       -0.74627175585199
H           -2.55545707132760        2.39734690812935       -0.51634402419343
H           -4.60383105455939        2.46604138692729       -1.77944331686927
H           -6.00571548489261        5.22533522946453       -4.89793493653655
H           -8.37900393853704        6.05451546844570       -4.34133818214545
H           -9.02217149030884        0.41177240440818        4.79127526930819
H          -10.96516887986088        1.93710085612799        4.06467844224059
H           -5.76704412777209        0.62166056348352        1.86373769645402
H           -4.55983316050586       -1.13416935018994        0.76985972434000
H           -2.44012323106007       -2.32619458991895        0.92631811236976
H            0.01466259480968       -2.33295986844998        0.70112782203061
H            2.47189866253264       -2.33374961748859        0.49466430835161
