24
 energy: -5.134299250653 gnorm: 0.000700924422 xtb: 6.5.0 (97a52f5)
C            3.63178757697560       -0.70711723554959        0.00002412789922
C            3.63247579315370        0.70204599878530        0.00197443222071
C            2.46467614502144        1.39399836305742        0.00221466184181
C            1.21551495229772        0.71253988927282        0.00039340934212
C            0.00123854442790        1.39613278469435        0.00042448498234
C           -1.21370857463024        0.71373383276802        0.00010740627602
C           -2.46220195724131        1.39642001070530       -0.00100655749683
C           -3.63067876920129        0.70560979383743       -0.00180149918594
C           -3.63137502115127       -0.70355442925829       -0.00149223064227
C           -2.46358713660629       -1.39553926081576       -0.00058538803344
C           -1.21441610314883       -0.71406997551924        0.00011893289746
C           -0.00013290530834       -1.39768947953680       -0.00015749053925
C            1.21482239856188       -0.71526204321317       -0.00041029362758
C            2.46332544573585       -1.39795813049499       -0.00115522885130
H            4.57050437826930       -1.23683199195010       -0.00084174935352
H            4.57171676513574        1.23083319554702        0.00306962405779
H            2.46911035433942        2.47050962568014        0.00362975945790
H            0.00176700374300        2.47122013974113        0.00062098207190
H           -2.46558894234003        2.47293549286208       -0.00142313191894
H           -4.56940335339940        1.23531562924638       -0.00275055148289
H           -4.57061066643196       -1.23234969070584       -0.00195604684302
H           -2.46804691552002       -2.47204711486035       -0.00044208399285
H           -0.00066437626986       -2.47277433885112       -0.00059679652850
H            2.46673536358731       -2.47447106544216       -0.00369877255092
