23
 energy: -4.996914238427 gnorm: 0.000192782763 xtb: 6.5.0 (97a52f5)
C           -3.63116928114840        0.69319951189602        0.07956873243535
C           -3.62013546680579       -0.71471893595067        0.06579978566031
C           -2.44693300319017       -1.39658101868751        0.04034374866680
C           -1.20465827299254       -0.70519126626496        0.02761024793456
C            0.01478358529171       -1.37995169735442        0.00161218759786
C            1.22072117533241       -0.68203270412834       -0.00965403904940
C            2.48290317073871       -1.32662334920382       -0.03449272895156
N            3.63371298523776       -0.72403084145113       -0.04419097126220
C            3.59499535951704        0.63093238240849       -0.03090959547560
C            2.46787013247038        1.37822691307379       -0.00876997194054
C            1.20702362307361        0.73565664477233        0.00395408166416
C           -0.00508868295138        1.41635610467827        0.02890586646689
C           -1.21609944021358        0.72260738267526        0.04178820318781
C           -2.46835421066770        1.39379925992878        0.06772527996166
H           -4.57368716991051        1.21527925187443        0.09978070627539
H           -4.55433271138470       -1.25184945965760        0.07590005776222
H           -2.44272088151548       -2.47275915218478        0.02936725206141
H            0.02514655972014       -2.45454968323044       -0.00949190486561
H            2.49912099015877       -2.40425333363653       -0.04674581094494
H            4.55391379767870        1.12704904643415       -0.03956781375559
H            2.51427291222437        2.45323484245113        0.00020195362601
H           -0.00906810638896        2.49101471507864        0.03864786626123
H           -2.48090706427441        2.46994538647888        0.07737686668375
