26
 energy: -5.882588698213 gnorm: 0.000739947079 xtb: 6.5.0 (97a52f5)
C            4.46280557602092       -0.23695692579639       -0.02740914468563
C            4.20622526389011        1.13669738437976       -0.02352565524081
C            2.92445094643765        1.59536844626854       -0.01356065593053
C            1.82093209269377        0.71035858255091       -0.00693189002159
N            0.58012391955669        1.23118844818401        0.00213709849668
C           -0.34903504139751        0.29625188628231        0.00669482176231
C           -0.09054847513417       -1.10312020198969        0.00305621044215
N            1.11658841458302       -1.63451244414982       -0.00567277889760
C            2.08354654047903       -0.70100579341988       -0.01066368949987
C            3.43338040691609       -1.12739280467436       -0.02109070275540
N           -1.31682568372455       -1.76345783000983        0.00332313893987
C           -2.34914193013738       -0.83184829011910        0.00266360046771
C           -3.73603284986552       -0.98938769078428       -0.00463095258083
C           -4.52515118676162        0.13424569400359       -0.01255375007369
C           -3.96119067739770        1.41420386900933       -0.01441134397816
C           -2.59849759090630        1.58716552454106       -0.00706100011937
C           -1.78294149921860        0.45640561373672        0.00365931737811
H            5.48112374443752       -0.58965512081148       -0.03567908746339
H            5.02834731171425        1.83343586258804       -0.02881332555488
H            2.72472025862993        2.65256750377875       -0.01081087813169
H            3.62943293535987       -2.18521446581836       -0.02418972364225
H           -1.43003799682959       -2.77235902102939       -0.00256071396236
H           -4.16275626727822       -1.97642588681927       -0.00486111009750
H           -5.59767707705078        0.02952795084568       -0.01860697826334
H           -4.60635200135248        2.27727392702304       -0.02233549728544
H           -2.15435913366445        2.56681578223008       -0.00943530930249
