39
 energy: -7.558843602324 gnorm: 0.000422038048 xtb: 6.5.0 (97a52f5)
C            2.58904819064073       -0.35666413390461       -0.97010083993952
C            2.38522501634278       -1.27839800521007        0.06096532713477
C            3.44634945030118       -1.79380037465036        0.74130000823537
C            4.77674724063865       -1.42044801188907        0.43542856565501
N            5.77728026207205       -1.97109219920275        1.14559340486885
C            6.95779373827899       -1.52919343106620        0.75925559726009
C            7.17430595004386       -0.58912326685830       -0.28085029215202
N            6.20110025397407       -0.04055602785322       -1.00127357396743
C            4.98710100436657       -0.47043220034979       -0.62458741863431
C            3.84991547182040        0.03410095572897       -1.30234992669339
C            8.58126398873753       -0.39076490176267       -0.40742720275450
C            9.20093231104699       -1.19505154631360        0.53766196063760
N            8.22217742112143       -1.87808988626017        1.24021273475393
C            8.52396325462997       -2.90190928366607        2.24422711983711
C            9.91852392397101       -3.48707634658507        2.00817054920483
C           10.97010376075347       -2.39004517556078        1.79308123920111
N           10.56745410526092       -1.35389582364257        0.81292170550753
C           11.49683203587578       -0.21383717727731        0.72894448945396
C           11.63749407323919        0.39222898717297       -0.66014760699440
C           10.42485444812837        1.21892614325526       -1.09232829346918
C            9.22297654085238        0.37363382398370       -1.51110758769017
H            1.74196513191921        0.04443850016360       -1.50219640948344
H            1.38277394778699       -1.58100087904318        0.31561657759841
H            3.29027382779446       -2.50385163395635        1.53426267201831
H            4.00767976705209        0.74347279809439       -2.09563971219665
H            7.74678073547339       -3.67201384866751        2.19686349937454
H            8.45569140677454       -2.44094057073318        3.23425133202257
H           10.20752085094574       -4.13658070517607        2.84579690897839
H            9.89170398246529       -4.13746720376741        1.12583555900180
H           11.91890613187385       -2.82213312137097        1.45585608936502
H           11.18027779574977       -1.88677071287778        2.74199034832859
H           12.47272396974658       -0.55595524893405        1.09046510606929
H           11.16149745929179        0.54558822863421        1.44163346674708
H           11.81944629119752       -0.40625605692001       -1.38868508798691
H           12.53649533497525        1.02384325552290       -0.68842370279383
H           10.70925538337534        1.87661493837782       -1.92573704861937
H           10.13176588756415        1.89310030363294       -0.27867169221237
H            9.52413345978015       -0.33080697480836       -2.29477524628075
H            8.45917619413911        1.01275681374171       -1.97106261938657
