53
 energy: -11.797359028249 gnorm: 0.000666744193 xtb: 6.5.0 (97a52f5)
C            3.91173947357468       -0.58845909691104       -0.54472299145135
C            3.92797142464230        0.68951825132944       -1.12504054862693
C            2.76504680094881        1.34602325919097       -1.38483483485438
C            1.50788715194375        0.76795977220644       -1.08015252780957
N            0.38323748168573        1.44984795706931       -1.36101230020873
C           -0.79163482462640        0.86563638348390       -1.06270348059297
C           -1.98844643403435        1.54917006547326       -1.38008008534291
C           -3.20813962631353        1.00095389230024       -1.12340993703127
C           -3.31137498361359       -0.25512423759314       -0.52189857302234
C           -2.19362745700511       -0.97482490556337       -0.16727032076344
C           -2.34781627188090       -2.29078738978112        0.49504644980938
C           -3.15722045202907       -3.28095070138501       -0.06788440730269
C           -3.31298280362889       -4.49836920827371        0.54778597997194
C           -2.66923434808785       -4.77090838953629        1.75164171538123
N           -2.83431763370491       -6.04982481908319        2.39780431952280
C           -2.02263111904966       -7.18786118490702        2.20512911069188
C           -0.90096376980115       -7.37734787133627        1.40016164729287
C           -0.29304101297838       -8.60925486351852        1.39703399918861
C           -0.78339746947766       -9.65594643152527        2.18282565980506
C           -1.88825447358314       -9.48372843181899        2.98319571510577
C           -2.51644533800188       -8.23819946859796        2.99742216597847
C           -3.67127739774100       -7.73354341059753        3.70681698132315
C           -4.54339680272571       -8.31859740815650        4.62510940549463
C           -5.56470222430518       -7.55678231981035        5.14235627480173
C           -5.73257188102995       -6.22270707310387        4.76077484553087
C           -4.88279048422561       -5.63324028540356        3.85635711016468
C           -3.84339893671502       -6.39286693466360        3.32288214528278
C           -1.86828211122625       -3.78639350236997        2.32337083186689
C           -1.71335777795626       -2.56825683422186        1.70911945648290
C           -0.89416609861412       -0.42157140135536       -0.45441230961981
C            0.27731579440827       -1.10869578127517       -0.18835904330207
C            1.49955095802224       -0.52784856225945       -0.49254661891125
C            2.73066694036390       -1.18481537936080       -0.23572633110410
H            4.84175774635603       -1.09501809316628       -0.34517726808438
H            4.87169743730658        1.15059258248886       -1.36645602662312
H            2.77904884198896        2.32465811235174       -1.83138629788072
H           -1.91230319589327        2.51851813414145       -1.84060938561982
H           -4.10431221147175        1.54139723522791       -1.38094566036711
H           -4.28322903985539       -0.66717491301930       -0.31134759137243
H           -3.65334225817631       -3.07946008739783       -1.00163781723018
H           -3.93365458540859       -5.26008576351733        0.10927449646850
H           -0.53197583852646       -6.56459035361409        0.80038760428027
H            0.57490905186235       -8.77256048365962        0.77947018600315
H           -0.28728407527910      -10.61229800557146        2.16011895544509
H           -2.27121125007075      -10.28467733020697        3.59059943254476
H           -4.40620211423524       -9.34517032922379        4.91577825215167
H           -6.24640144401875       -7.99366101080869        5.85349878566495
H           -6.54063848598457       -5.64866387657356        5.18368840997880
H           -5.00142018185585       -4.60730962833370        3.55647784707101
H           -1.37849924656544       -3.99615779082835        3.25815739097971
H           -1.11037350888670       -1.80407008153666        2.16856226954523
H            0.24707089780195       -2.09319391137122        0.23951712187364
H            2.71455916768712       -2.16411809401233        0.21053979141236
