62
 energy: -13.566307029135 gnorm: 0.000760196027 xtb: 6.5.0 (97a52f5)
C           -2.07861734832983       -3.21269470347623        0.22892555333253
C           -2.37810172529169       -1.85800839030201        0.37670329474189
C           -1.37636189234204       -0.91790258812975        0.40142603929843
C           -0.05696202786138       -1.33106303542133        0.27726672831735
S            1.40846391822626       -0.38035305568430        0.26798486476678
C            2.42603750308291       -1.79856534862412        0.06758694613464
C            3.86128266889049       -1.75310028194858       -0.02801255926902
C            4.62268809202863       -0.61744148736756        0.00723241578457
C            6.00907112630662       -0.85190192177040       -0.11277069379646
C            6.33592645766088       -2.17256727049734       -0.23964387833650
C            7.67576287038479       -2.69088194320882       -0.37904798355789
N            8.77079511126880       -1.92382877632228       -0.44506224738136
N            9.80351221949921       -2.69680229379442       -0.56925715060088
C            9.38081140149118       -3.96517117309772       -0.58196473636290
C           10.25923557047327       -5.11849260353876       -0.70278703541866
C           11.63384050561300       -4.94820305731402       -0.84939970792824
C           12.46399731640724       -6.03487244056225       -0.95708703383133
C           11.94673099866024       -7.32755678844455       -0.91999109859314
C           12.82892950627438       -8.47952690019592       -1.02461539505891
N           14.15435775100879       -8.39950833735588       -1.18090829223712
N           14.63206612898514       -9.60310801989908       -1.23406838259510
C           13.61635383159398      -10.46585750744444       -1.10801586009034
C           13.77248030717623      -11.90064994407959       -1.10965654678630
C           14.95802180983285      -12.56643784354505       -1.24440699418574
C           14.82912899335523      -13.97115023221269       -1.20789869215130
C           13.54338647067154      -14.40791112382752       -1.04403018538093
C           13.13402270998289      -15.78559284879483       -0.96966141932660
C           11.85585147432854      -16.22131045108227       -0.80454791037887
C           11.72930734274655      -17.65168680515785       -0.76026024614945
C           10.55295628960638      -18.40292243130654       -0.59776418108471
C           10.62894559397594      -19.77175511615976       -0.57695095376614
C           11.85644214374701      -20.42055046445473       -0.71492945075394
C           13.01545631265843      -19.70003986427452       -0.87469059757519
C           12.95301014283266      -18.31348837876892       -0.89714525053131
S           14.23977933717588      -17.14643337490818       -1.08054890902112
S           12.46794761922535      -13.03556676705642       -0.93657519558567
O           12.44454928157925       -9.78494718688202       -0.97544119822463
C           10.57223445331746       -7.49883188953457       -0.77510007028615
C            9.74070944723722       -6.41063642984537       -0.66943187344064
O            8.02482290295465       -4.00446243295206       -0.46353159843295
S            4.89760134134988       -3.14727152253283       -0.20960391539068
C            1.66775044036778       -2.92693970431177        0.01621520541288
C            0.25621402308764       -2.68560212439037        0.13108701586712
C           -0.77978101625840       -3.63458401290327        0.10672484504463
H           -2.87860721428066       -3.93432316038432        0.21046914404586
H           -3.40533327434471       -1.54675893453317        0.47167007779762
H           -1.59634020752649        0.12944522055768        0.51397958964610
H            4.19393750783026        0.36647857455705        0.11551832159106
H            6.74934558478590       -0.06704534390523       -0.10421171242076
H           12.03456841420045       -3.95004827360061       -0.87573254323992
H           13.52581389054553       -5.90236379870462       -1.06938162289438
H           15.90151777487530      -12.05698232172272       -1.36432279122086
H           15.66504426744013      -14.64697276183796       -1.29853952702479
H           11.01454857673677      -15.55530148353210       -0.71396617455445
H            9.60993598557108      -17.89637954817305       -0.49161961856407
H            9.73125266426154      -20.35466343841540       -0.45237573407295
H           11.89513090516007      -21.49721185383160       -0.69557099095980
H           13.96744199602953      -20.19025498390461       -0.98162076962864
H           10.17483178566774       -8.49887909485886       -0.74628608250162
H            8.67796341882134       -6.54002899060135       -0.55679368934591
H            2.08640809363367       -3.91170212111939       -0.10410153877790
H           -0.54206757453293       -4.67734881257104       -0.00831000304890
