9
 energy: -1.645740775477 gnorm: 0.000544420390 xtb: 6.5.0 (97a52f5)
C            1.35202835783403       -0.71031756986439        0.00146424633018
C            1.34874379860259        0.71756808597093        0.00128351101809
C            0.10645252982564        1.24681420516421       -0.00407506177368
S           -1.09317184370806       -0.00199824487853       -0.00886440360434
C            0.11218703663314       -1.24527237302151       -0.00387084813732
H            2.25772170711716       -1.29950258282890        0.00522342797255
H            2.25171948407041        1.31090908154346        0.00483265603676
H           -0.12482818621506        2.29531957127090       -0.00540011946956
H           -0.11426288415985       -2.29483017335616       -0.00545340837269
