40
 energy: -8.850570739632 gnorm: 0.000755635936 xtb: 6.5.0 (97a52f5)
C           -0.05722657509106       -1.43107522619009       -0.00510146949257
C            1.08660896835788       -0.77106800563937       -0.35822221202481
N            1.18333776653916        0.53654063209086       -0.35359810369008
C            0.08217220670067        1.20621928778135        0.01664941172107
C            0.15887777361564        2.68105713824901        0.02717852870818
C           -0.46798124427911        3.42931668694008        1.05986384492603
C           -1.15751805621293        2.79999008766915        2.12298481071684
C           -1.73354434049765        3.51281229138703        3.12707752365716
C           -1.66206114440276        4.91020566531328        3.12761098508154
C           -1.01073215498545        5.55958167208651        2.12698230279387
C           -0.38738393451624        4.85107576130111        1.07078796214149
C            0.30176466881957        5.53740772208594        0.04439732680697
C            0.37708782533403        7.03945775189217        0.05341560097126
N           -0.39031522633471        7.78703739151841       -0.76116973402900
C           -0.35236098468902        9.00668088186256       -0.78535745882729
C            0.50129643622928        9.50284216813100        0.06788088335802
C            1.30009294529792        8.91321665042150        0.91489060190683
N            1.21561537211656        7.69632056357790        0.87612238045605
C            0.92092338251809        4.79795646282890       -0.98979024086358
C            1.61422860346032        5.45328949602005       -2.03670647254786
C            2.19852719923412        4.75426518170653       -3.04521257481725
C            2.12883059424773        3.35688522780181       -3.06244011682893
C            1.48298102100014        2.69310014189631       -2.06721939843491
C            0.85875269352674        3.37524322241930       -0.99634497447066
N           -1.08370548607001        0.65015291926667        0.37698692252986
C           -1.12537360858050       -0.66021930308293        0.36018213501375
H           -0.11409573455297       -2.50688927069366       -0.01396264505960
H            1.96240551634826       -1.32900576434356       -0.65505143505864
H           -1.23363564995433        1.72949669982595        2.12331651953133
H           -2.25369188685986        3.00465137102602        3.92244669747325
H           -2.12647053986284        5.46885297994997        3.92343596984155
H           -0.95971255781468        6.63376111319393        2.13065347548209
H           -1.19853684242492       10.33432135536092       -1.72661976635216
H            0.55682889795590       10.58806749011219        0.07344277235584
H            2.26968305604949       10.15801693360941        1.87016246615990
H            1.67293069045395        6.52704364062903       -2.02604416491694
H            2.71800582907999        5.27332262150108       -3.83382826040845
H            2.59611833911335        2.80902052072941       -3.86420137962664
H            1.45087248758755        1.62048126527739       -2.08113198911481
H           -2.05496630645378       -1.12739342551430        0.64970327493267
