58
 energy: -13.496166502283 gnorm: 0.000288868468 xtb: 6.5.0 (97a52f5)
C           -2.85979639536686       -1.10032471950177        1.96402869366240
C           -2.13738180995672       -2.21957586287904        1.59839834593210
N           -1.03195774485845       -2.20577474252778        0.88481635215074
C           -0.58136610986313       -1.00459166551741        0.48262415148603
C           -1.25532836474598        0.19199090344344        0.81159588133389
C           -2.41551019333793        0.12691965903294        1.56835254236445
C           -0.73139950409483        1.44839957865779        0.33809878364343
N           -1.20170267157368        2.69937621230410        0.52556232759810
C           -0.38101460741826        3.50430760276844       -0.14605330343458
C           -0.54232337658320        4.95311893474775       -0.21331499510691
C           -1.30741283791782        5.61544078192326        0.74517386998852
C           -1.48309486067840        6.97537853910802        0.68593137298088
C           -0.91990569955186        7.72144661141621       -0.34789927201573
C           -1.14644631561357        9.16186740847589       -0.41922841738476
N           -1.48509809239322        9.91516432043002        0.62505479129295
C           -1.63950732246547       11.16735843617803        0.14510106018966
C           -2.00163771415454       12.37794888932695        0.83892365645131
C           -2.20603508313617       12.39742620137457        2.21036824666138
C           -2.53744612594001       13.58328304346264        2.79688888285069
C           -2.65696555123928       14.70793119123243        2.00374094847175
N           -2.47463450145738       14.73660506793407        0.70104228234293
C           -2.14444604706220       13.57692655853354        0.10632247109132
C           -1.93380929989804       13.58146028003009       -1.34165667653866
N           -2.10786115678397       14.73975388501754       -2.00153143878839
C           -1.92409767773187       14.71725704650728       -3.30378350602966
C           -1.56460919718418       13.60133782104676       -4.03460715478898
C           -1.37885458886419       12.41841466795588       -3.38197020245107
C           -1.56402101944382       12.39081059119567       -2.00645497164528
C           -1.40994713934676       11.18656008083115       -1.23783571613696
N           -1.08032731572990        9.90811175312127       -1.58837103577608
C           -0.15538980303994        7.05966078510994       -1.30826502543255
C            0.03644522920337        5.70163594537199       -1.23784468193620
N            0.63593395434496        2.79275708502199       -0.76878867556148
C            0.42368359390338        1.48004518555534       -0.45554324481176
C            1.13538776097580        0.27722596769438       -0.78965835050087
C            2.29659782251346        0.29279946289248       -1.55012431126430
C            2.91259758712049       -0.89536121608197       -1.81191166136661
C            2.35753732811174       -2.05854416647817       -1.31442159121135
N            1.25976870406903       -2.12283869147458       -0.59253647046787
C            0.64020937444955       -0.96082490067089       -0.32175981167354
H           -3.75967321579878       -1.19556315943804        2.54920962165852
H           -2.48836066298478       -3.19194664598479        1.90962156486938
H           -2.94292377814679        1.02964586254544        1.82324713944878
H           -1.75900566429470        5.04053211654950        1.53472918609086
H           -2.07229877226623        7.48307113825220        1.42960413576869
H           -2.09791658206033       11.49318450175455        2.78351890781484
H           -2.70143371505333       13.64242962591073        3.86033987591961
H           -2.91874270409305       15.64765921787921        2.46630879053113
H           -2.07250470572121       15.65407700245785       -3.81947564020669
H           -1.43545459747575       13.66460065511674       -5.10260584513326
H           -1.10165240923533       11.52359126964840       -3.91077386881616
H           -0.91158446832358        9.55992621067633       -2.53152108931290
H            0.29437010835796        7.62839720694025       -2.10282312970612
H            0.62011432453323        5.19979898679686       -1.98897543885834
H            1.41278583110652        3.17128931051967       -1.30954183802087
H            2.69405745943615        1.22322624192725       -1.91550229839442
H            3.81760647450606       -0.92696010772360       -2.39608780679805
H            2.84479385028584       -2.99949396641290       -1.52125641303057
