50
 energy: -11.049910061323 gnorm: 0.000999635436 xtb: 6.5.0 (97a52f5)
C            0.40669563642462        1.05676628089145       -0.23918191716552
C           -0.89779873558856        0.88336638389170        0.16680007643768
N           -1.42885532494660       -0.27547261812851        0.52212723306661
C           -0.61407625312955       -1.31283916714896        0.46474026692262
C            0.71695745468092       -1.26801463735483        0.06375761342605
C            1.54453306546001       -2.49823526727057        0.00754438709258
C            2.53154015294660       -2.73749841350694        0.96343418921872
C            3.31092313219778       -3.87793511295456        0.92944512469193
C            3.13540503293397       -4.82235965508557       -0.06538713275824
C            2.17019837799432       -4.60574079182161       -1.02468444682945
C            1.37366987414746       -3.45940811777332       -1.00211765596481
C            0.45414240281176       -3.48962683328189       -2.15208591003028
C           -0.50416092789811       -2.57671136697594       -2.57191689279496
C           -1.23360628556480       -2.84461525386703       -3.71200415427467
C           -1.01677402843979       -4.00805414312258       -4.43336870548083
C           -0.06330104725027       -4.92249254485651       -4.02514198895147
C            0.66825247947121       -4.65857261420674       -2.88660978448114
C            1.78426712111440       -5.46415594996379       -2.22706008083164
C            2.96082446954817       -5.71797533444137       -3.16890080986598
C            3.76209009953340       -4.82761459594541       -3.85203517167641
C            4.77614894995403       -5.32090114168535       -4.65250681064249
C            4.98577750422225       -6.68628953434183       -4.76712772899462
C            4.18688289511860       -7.58292703801066       -4.08574859264014
C            3.16720203220352       -7.09428908506879       -3.28117803239363
C            2.17546971790548       -7.80401243355133       -2.45551767970210
C            1.98281849997375       -9.16237924394527       -2.24663957923711
C            0.96227784179789       -9.56962594354047       -1.41064165114154
C            0.14143062503080       -8.64107564170153       -0.78975492067340
C            0.32756539493664       -7.28607948673031       -0.99459677164960
C            1.34558956455017       -6.87278222145407       -1.82778225832854
C            1.23512594521526       -0.03384900369148       -0.29339412007439
H            0.77002869874477        2.03404755913808       -0.51175441561266
H           -1.55129378108398        1.74206715708352        0.20689372745350
H           -1.02528521858073       -2.27017105955789        0.74369943621878
H            2.67748364260638       -2.01018637545547        1.74355683856959
H            4.06292535207363       -4.03454784656520        1.68524881666638
H            3.73679550803806       -5.71353530675476       -0.10428258231044
H           -0.66954437719444       -1.67567743958283       -2.01016747469533
H           -1.97935071429812       -2.14144382009714       -4.04513866750848
H           -1.59508491340943       -4.20184064236180       -5.32209569274090
H            0.11812921071302       -5.82745419444899       -4.57818085778182
H            3.58934608440651       -3.77006272764889       -3.75467654448025
H            5.40923658566432       -4.63592390422066       -5.19237652730027
H            5.78074842894572       -7.05255161362235       -5.39597313642484
H            4.34293120607295       -8.64396947306972       -4.16975363039176
H            2.62415859276180       -9.87655880637530       -2.73226780912636
H            0.80275179761308      -10.62155208137339       -1.23850757493077
H           -0.64976846555586       -8.97745917677941       -0.13997634225439
H           -0.30233789792217       -6.55565688205552       -0.51767457020760
H            2.26059459304531        0.05142716039182       -0.61013908741529
