60
 energy: -9.943590511470 gnorm: 0.000585956635 xtb: 6.5.0 (97a52f5)
C            0.81357072085624        0.93105603977892        0.53054744643882
C           -0.19505007375736        1.30715211177619       -0.29035345582091
S           -0.91719196501426       -0.08857063588093       -1.00249547362091
C            0.03982130578955       -1.21169937516342       -0.05548402902175
C           -0.14895710497437       -2.65371371145039       -0.06880764594946
C           -0.83478149395368       -3.28484433239909       -1.14129270524683
C           -1.52343074791724       -2.56960988743350       -2.14996341057028
C           -2.16815284283336       -3.19321423056884       -3.16696845894589
C           -2.18140449935378       -4.60391982060941       -3.26928173737823
N           -2.84564121532151       -5.25168505420852       -4.31897942641253
C           -3.33599403994495       -4.53914110614996       -5.51901663799977
C           -4.85542160094333       -4.36425543463028       -5.45335948343423
C           -5.54363591255254       -5.73281967952566       -5.30729001094908
C           -4.97087330763630       -6.51454499317278       -4.11071241610887
C           -3.44119507379864       -6.60435483805285       -4.18633005459550
C           -1.51721969153988       -5.32257894916910       -2.28509769363072
C           -0.85137940328298       -4.70550455506059       -1.22615806259244
O           -0.22452204733207       -5.50792026342999       -0.30357286001800
C            0.32703739808854       -4.90248022871202        0.79995297218677
C            0.87149114154796       -5.72150815671699        1.78868104684997
C            1.37701296461412       -5.21793839470608        2.97901547631671
N            1.91533757746694       -6.06550537932494        3.95611366113864
C            1.88202860069576       -5.75707097276758        5.40696380289071
C            0.84436533457530       -6.63394651576606        6.11932119064847
C            1.09641288578585       -8.12782425999949        5.84504232717781
C            1.19588856023889       -8.40243714609131        4.33414896897062
C            2.24146691232970       -7.48491767142227        3.69440772599467
C            1.29859222405410       -3.81949833686779        3.17816901008065
C            0.79435536318531       -2.99712414557304        2.22180795033318
C            0.33927614898191       -3.48866432020030        0.97392980776189
C            0.96530367211123       -0.47524933215714        0.64676915231914
H            1.44149289416678        1.63614864475893        1.05627423342298
H           -0.48368837449056        2.31726153487913       -0.51133881777354
H           -1.54366716071271       -1.48785015594312       -2.10737780735517
H           -2.70648633077526       -2.60668786340696       -3.88858913890843
H           -3.06435456096071       -5.13884002573235       -6.39317537776243
H           -2.80924346449436       -3.58852938994882       -5.63941145695694
H           -5.22651238049138       -3.82629665321461       -6.33580609196462
H           -5.10806931705681       -3.73724525516513       -4.59062655603481
H           -5.39822670114366       -6.31378738899408       -6.22554080742052
H           -6.63029366650431       -5.61007163514037       -5.20515050894043
H           -5.41501552592646       -7.51720076506849       -4.05199162059808
H           -5.25324003648965       -6.00920121884580       -3.17982444488841
H           -3.13248558438314       -7.19686655855977       -5.05250544949976
H           -3.03640427885562       -7.11150547519048       -3.30750548202643
H           -1.46911926706440       -6.39225056719114       -2.33746225522182
H            0.83571140579429       -6.78017739655058        1.62282481182507
H            1.67253025767935       -4.69695495014906        5.56541224430082
H            2.88145285775251       -5.93634419978684        5.81392592244636
H           -0.15619881485957       -6.36433873162593        5.76181023919637
H            0.84039743627564       -6.43073992992520        7.19853537353999
H            0.30787377309824       -8.74317391840481        6.29879651910408
H            2.02798070384223       -8.43608243309675        6.33385339463720
H            0.22172835186338       -8.21813749128560        3.86698562770218
H            1.42868583897184       -9.45764401089810        4.13870145983353
H            2.34964404961698       -7.65846396761904        2.62015112495125
H            3.22803038948052       -7.68197602756849        4.12499570584626
H            1.66714330203666       -3.39658385385411        4.09442394151689
H            0.67671433174403       -1.95359122588644        2.44684874681824
H            1.77347008172044       -0.91750551493313        1.20788949339756
