37
 energy: -7.530160968230 gnorm: 0.000752579198 xtb: 6.5.0 (97a52f5)
C            1.12610893977090        0.58201714949783        1.20425362702177
C           -0.16731709029951        0.97309051068463        1.21196075360166
S           -1.19842888342595       -0.29991690829688        0.66278169649238
C            0.14758433053891       -1.38713164028194        0.41447227662526
C            0.02413828646396       -2.73829065983313       -0.07537014505126
C            1.05013329602287       -3.62223722674676       -0.28140260074331
C            0.63605771926333       -4.87828028586468       -0.77740848268153
C           -0.71602192706922       -4.98696375744553       -0.96182216889352
C           -1.40254892562622       -6.14690384236738       -1.46114067462994
C           -2.75715070034284       -6.26724065097747       -1.62101544206492
C           -3.16683484786232       -7.51454560926970       -2.13948551414661
C           -2.13395691114650       -8.38025909443729       -2.39184021603946
C           -2.24775860171382       -9.70970007357817       -2.92980801037331
C           -3.40795969456763      -10.34745446655803       -3.28331133414542
C           -3.21559564978087      -11.64927357512912       -3.79712711677558
C           -1.90458005094811      -12.04180514750842       -3.84847621761300
C           -1.41063774925327      -13.30849820344025       -4.33061362021471
C           -2.15882200761759      -14.31733620444145       -4.87066120921383
C           -1.39655880973758      -15.45106051708105       -5.26223534491205
C           -0.07307723921514      -15.31714674070508       -5.02461933299671
S            0.27133693833136      -13.78240796990186       -4.30881573199655
S           -0.88991589090838      -10.76196697953929       -3.23633028316944
S           -0.62049132431657       -7.62380882230415       -1.96321042476044
S           -1.49064715371610       -3.49280051852031       -0.50056851281793
C            1.31046855428892       -0.75312131934467        0.75377631100776
H            1.94334321544684        1.21972901589545        1.50891210599088
H           -0.52551078156655        1.93898202353492        1.51414125860762
H            2.08305062410730       -3.38074414122703       -0.08600887219486
H            1.31866635863758       -5.68419916596916       -0.99723131820199
H           -3.44335212368093       -5.47260658842052       -1.37325278426185
H           -4.20046794145943       -7.76337749895512       -2.32080669630341
H           -4.38169158697026       -9.89471990315816       -3.18169348867244
H           -4.02985918060995      -12.27752862812542       -4.12235854722755
H           -3.22872292392343      -14.25760231068686       -4.99327532901535
H           -1.83644964059113      -16.33196696232319       -5.70688171059190
H            0.67732370767872      -16.05277146405037       -5.24459681662122
H            2.27942566582384       -1.22111182317304        0.68142991699853
