27
 energy: -5.734400765478 gnorm: 0.000918900681 xtb: 6.5.0 (97a52f5)
C            1.09751843357060        0.73517450475654        0.39826174180994
C            0.51958439496361        1.06381931620410       -0.77958452269183
S           -0.26168236927015       -0.31449678498907       -1.46132515675064
C            0.19377047179943       -1.35432226771165       -0.14277743376747
C           -0.16919391755552       -2.75380593530878       -0.07723058835431
C            0.20338134589413       -3.56251851595542        0.97779236820072
C           -0.14481557242852       -4.91571561954936        1.05150283076682
C           -0.88656443990208       -5.54823310571350        0.07399659255386
C           -1.24266450918939       -6.94818329213753        0.16041159931903
C           -0.93845401903767       -7.83523557110432        1.15722189412847
C           -1.44364361169608       -9.14685511917351        0.93595959900894
C           -2.13147350296611       -9.27642269402086       -0.22188586623218
S           -2.16868277601242       -7.77095968312872       -1.06199840268344
C           -1.30633666627824       -4.76060416584819       -1.05883637162392
N           -2.00566852006735       -5.16565721369789       -2.09940447632809
S           -2.21122646841337       -3.88745015358175       -3.10852218527012
N           -1.39821206249142       -2.76792929045758       -2.22516927324330
C           -0.94780791243545       -3.35229440260163       -1.13369691073649
C            0.91811973625002       -0.62819482194349        0.76344413600875
H            1.64465932614030        1.43996234319803        1.00775621506478
H            0.53480830252065        2.03498572722780       -1.23683797888749
H            0.78445095553722       -3.13613410946001        1.77567199765363
H            0.17942943533550       -5.48517581002419        1.90388513014257
H           -0.36972816918428       -7.57042078533436        2.03470430207125
H           -1.29076410976790       -9.96019696189839        1.63068861754203
H           -2.59272077256112      -10.17703984480851       -0.58062428362879
H            1.31561699724494       -1.04445574293799        1.67535642592775
