43
 energy: -9.195368001439 gnorm: 0.000751317858 xtb: 6.5.0 (97a52f5)
C            1.12358061407629        0.81614859962050        0.62341826910800
C            0.52761291137359        1.18780422476141       -0.53138002608044
S           -0.19300426453990       -0.17198917301513       -1.31594508193922
C            0.32060053781993       -1.26832891838048       -0.05446562506450
C            0.02677081258194       -2.69623152995038       -0.07541547309665
C            0.45886197034143       -3.56536645928142        0.95052665064417
C            0.16618973913307       -4.90400164632630        0.92225963835855
C           -0.56806355407679       -5.41409801462039       -0.15234939554000
C           -1.04188582433097       -6.73832650582305       -0.44562519884956
C           -0.93197322975050       -7.95118472809507        0.24019920550969
C           -1.52105957012070       -9.06661989627066       -0.29578019173043
C           -2.23211849582803       -9.02146955189787       -1.51468408029929
C           -2.84824434766289      -10.23007250568312       -2.04883587792970
C           -3.51793923867170      -10.34860369549779       -3.23332239346177
C           -4.01187837108415      -11.65794084823818       -3.48607432708911
C           -3.72435166767805      -12.54047959473542       -2.50361358788582
S           -2.83211895080917      -11.77839718867651       -1.23617831804017
C           -2.33408337094398       -7.81536533763125       -2.18776683238113
C           -1.74150331590283       -6.67001747524680       -1.66311491425012
N           -1.70595333208163       -5.34306626801956       -2.14596384355858
C           -2.30910051816994       -4.93791503279681       -3.37284965888372
C           -2.22587375916432       -3.72662638756167       -3.99190103031683
C           -2.99100005766919       -3.63671562567564       -5.19292781230951
C           -3.64601866628412       -4.77562651227189       -5.50227685407549
S           -3.30747192812203       -5.99911170038119       -4.32768349315421
C           -0.99745149071323       -4.57065647260946       -1.19511238331512
C           -0.70208316034466       -3.21253650580028       -1.13546124064339
C            1.00957876722497       -0.57461551896112        0.89845247852522
H            1.63850422138243        1.50640099561540        1.27588157875362
H            0.49617590437608        2.18656928805383       -0.92457115543169
H            1.02449667928110       -3.16428452104093        1.77244971224927
H            0.48903962348684       -5.56265239675038        1.70905472514589
H           -0.39516806881385       -7.99380290810655        1.17121777756019
H           -1.44888797533105      -10.00909801397139        0.21740292174786
H           -3.66075972414291       -9.52922186102378       -3.92006660493578
H           -4.56300592473925      -11.91765972869833       -4.37850525916095
H           -4.00303176551744      -13.57745860434350       -2.49446476489211
H           -2.87066860127980       -7.76500482448777       -3.11186437056602
H           -1.62293382528414       -2.90975606318466       -3.63689993913364
H           -3.04000038143993       -2.73862838366260       -5.79195013741630
H           -4.27821551329828       -4.92359421718405       -6.35742860445453
H           -1.05150702363887       -2.54273295721975       -1.89307117788190
H            1.43004413635644       -1.03204553492812        1.78000669616567
