16
 energy: -3.115923716450 gnorm: 0.000480067858 xtb: 6.5.0 (97a52f5)
C            1.25923304985676        0.73978820824866        0.27024395286002
C            0.17703171544057        1.22105597674474       -0.37979562609151
S           -0.92037428240587       -0.05409434734045       -0.77535927075875
C            0.10614522295363       -1.26685046261530       -0.04654710737356
C           -0.20320358458218       -2.67920851507559       -0.00266019446388
C            0.54319679298871       -3.65064747606678        0.60138508546838
C           -0.00729631097066       -4.95626394753984        0.48065139538205
C           -1.16780892711245       -4.98840173713504       -0.21035142236488
S           -1.61691230494794       -3.40340858561459       -0.73257273454936
C            1.22407492581871       -0.66889844062100        0.46165412953639
H            2.07442727565234        1.36156558199403        0.61158220589826
H            0.00520280017490        2.25218282554682       -0.62457459114145
H            1.46471155515312       -3.44708172145507        1.12382106952459
H            0.46056988538498       -5.83490163084725        0.90072598711227
H           -1.74476335972450       -5.86978080616154       -0.41789964024505
H            2.01338554631947       -1.21550492206094        0.95326676120712
