26
 energy: -5.631368851327 gnorm: 0.000990424689 xtb: 6.5.0 (97a52f5)
C            1.05633189760327        0.80730320952051        0.38053360402335
C            0.43352235373059        1.09873757643174       -0.78440549704495
S           -0.31573791467269       -0.31514946280536       -1.42896572134378
C            0.21597327807500       -1.31198389358883       -0.10980875611379
C           -0.11489506241711       -2.71711473065653       -0.05185201523065
C            0.27652353394959       -3.56907445772690        0.95962447774436
N           -0.00839583582675       -4.88296905513370        1.05406523727478
C           -0.73391428430714       -5.43191744001544        0.08570962355733
C           -1.07085079799321       -6.83106590793394        0.11814723744225
C           -0.73506901548947       -7.75209920717757        1.06793731323832
C           -1.23554153840834       -9.05513347415887        0.79415482936537
C           -1.94819492200155       -9.13552884011827       -0.35353675661748
S           -2.01349522904247       -7.59212369489971       -1.12518995174724
C           -1.19780702204773       -4.65439505333882       -1.01453568096359
N           -1.91171011874085       -4.97168406208777       -2.09642284948487
O           -2.04018419559961       -3.84035809914046       -2.81207935193063
N           -1.42436371886921       -2.80946648203115       -2.20820879226717
C           -0.89411370535942       -3.29570356009787       -1.08544686249153
C            0.93817698322380       -0.55636955472298        0.76910194353650
H            1.59379207929702        1.54014080367571        0.96571626025989
H            0.40156415827037        2.06377532710498       -1.25390376081692
H            0.86842135350842       -3.16569322318231        1.76371409780204
H           -0.15040885782065       -7.50448291170044        1.94049818442029
H           -1.06105746798623       -9.90067030161091        1.44419374286466
H           -2.41146803321255      -10.02207908549074       -0.74370806370759
H            1.37495208213952       -0.95174441911505        1.67279750823041
