34
 energy: -7.503999894110 gnorm: 0.000609277777 xtb: 6.5.0 (97a52f5)
C            1.30166653697010        0.74489236048442        0.02813850603374
C            0.05406252580950        1.26432712093413        0.05405149282822
S           -1.13527576483009        0.01246243474974        0.03482665927515
C            0.08084538087406       -1.24373735381615       -0.02689261498101
C           -0.18806040884158       -2.68731993214683       -0.05273665830573
N            0.31874136451154       -3.43361123146114        0.91689733127842
C            0.03309887121616       -4.78199211036881        0.94978946348208
C            0.55494812464568       -5.55889077398378        1.99716166628915
C            0.29880572928702       -6.90055759157787        2.08390779229215
C           -0.49052278675983       -7.52963477060911        1.12687602451540
C           -1.01588483257503       -6.80679463413837        0.08995617490901
C           -0.76692387334704       -5.43354929124912       -0.01514802294011
C           -1.27626538530973       -4.62637814430542       -1.08196065861268
C           -2.02580338126689       -4.93354564437004       -2.22449222559285
C           -2.17118190885353       -3.75550218974250       -2.94779828058090
C           -2.80816362314959       -3.52045601228733       -4.18839218775542
C           -2.77342524709768       -2.26891678743857       -4.70916622098621
C           -2.11382916732033       -1.22357096082419       -4.02468297704495
C           -1.50924358654703       -1.45098788697504       -2.83645418854459
N           -1.52661980139453       -2.71653108921541       -2.26596106222780
C           -0.98188899655939       -3.26010968023504       -1.09448712113356
C            1.32250987387311       -0.67496339634033       -0.01148388250411
H            2.19828846041875        1.34778828934066        0.03575269722687
H           -0.18552030515334        2.31060779716753        0.08226915468860
H            1.16520582005890       -5.07247739810120        2.73767564032239
H            0.71029729872761       -7.47478058842589        2.89784263648560
H           -0.68700503447524       -8.58649752043167        1.20278801828273
H           -1.62620039804890       -7.28814483896426       -0.65402335600468
H           -2.39549819867217       -5.90268884137520       -2.50871007272857
H           -3.29933509935938       -4.33040819510435       -4.69822181306792
H           -3.24994505974822       -2.06545647246661       -5.65408463611255
H           -2.09823326630566       -0.23583716481124       -4.45489809558186
H           -1.01663314332780       -0.66163063873864       -2.30243779962487
H            2.23017928255066       -1.25763686317264       -0.03856138357909
