29
 energy: -6.260828271152 gnorm: 0.000809959429 xtb: 6.5.0 (97a52f5)
C            1.17651980369483        0.88395692683825        0.30848968210240
C            0.21952012012827        1.26269461580197       -0.56521467109637
S           -0.62126184292408       -0.12509370123107       -1.16575791024614
C            0.27078425426710       -1.22324187113104       -0.15201006296035
N           -0.00204383528584       -2.62321063250304       -0.09119036369335
C            0.39878023715842       -3.56039269900640        0.89153281281720
C            1.13239563253662       -3.42400597526425        2.07322717250822
C            1.35113120218337       -4.52894386429556        2.85899468251878
C            0.84522998428180       -5.78140863757107        2.50240175877829
C            0.10403266558940       -5.93770508832289        1.35794234942541
C           -0.12424181566312       -4.82193434010071        0.54981485220868
C           -0.89988490323509       -4.65921694967987       -0.65215010712891
C           -1.66866288133801       -5.55638180641967       -1.39691963870950
C           -2.34760741614164       -5.08943892273896       -2.49550510839685
C           -2.27762312278331       -3.74237428098594       -2.86140051951609
C           -1.52801696037847       -2.85209393582555       -2.13588102537511
C           -0.82293222115459       -3.30473106261339       -1.01787163884880
C            1.21756715469888       -0.52544793780347        0.53500987760043
H            1.84447171218898        1.57793658209433        0.79795879609009
H            0.01309574780800        2.27025478728524       -0.87369015608463
H            1.49352700913711       -2.46147283800396        2.38052194663959
H            1.91643575329444       -4.42872236155018        3.77109730628758
H            1.03032664113855       -6.63097108426930        3.13901518212575
H           -0.30597396470556       -6.89311525906489        1.08187237473158
H           -1.72424578568676       -6.58914801472795       -1.10122039365739
H           -2.94507157502054       -5.76835249994824       -3.08148629886204
H           -2.82110204669947       -3.39990394101960       -3.72674668032958
H           -1.47652957643876       -1.81986839136793       -2.42222320887734
H            1.94923002934939       -0.98621681657496        1.17688898994890
