115
 energy: -19.810449288263 gnorm: 0.000794951335 xtb: 6.5.0 (97a52f5)
C            1.06482070601210       -0.22819223474513       -0.05772340842077
C            2.59333687960100       -0.21359221569775        0.02319555732020
C            3.15808842558974       -1.62253488479632       -0.17062528648735
C            3.18264275175060        0.78518370119101       -0.99221371924018
C            4.68596504776130        1.01763773664408       -0.83898338838664
C            5.22363972517026        2.06269559188316       -1.81743450153235
C            6.72199107374208        2.38768311236837       -1.63634729743141
C            7.57927320762824        1.16987985660580       -1.98513960019175
C            7.11301224782769        3.63993276397240       -2.46782544132553
C            6.25398789203787        4.89938746105603       -2.10329842907543
C            7.17024216629647        6.14942907667614       -2.19952929007243
C            8.47231533077740        5.63499991196513       -2.84709960015124
C            9.79061033569141        6.44267806535584       -2.70637907533804
C            9.60063452578945        7.91112676444081       -3.14307959716141
C           10.87706575690174        8.61744544381315       -3.45375201734931
C           12.05592761813310        8.02990894122102       -3.63136979240318
C           13.26515616594632        8.87672593483615       -3.92133321307021
C           14.03880434799973        8.34772869586932       -5.14389734171472
O           15.17721152318512        9.16294182060146       -5.44479313921995
C           15.63926516977704        8.93819517784053       -6.71320346535772
O           16.60430894975806        9.53944461312329       -7.14344492591532
O           14.95229577201287        8.03206216013434       -7.49195751610353
C           15.50547295339645        7.69941874491289       -8.74544467852389
C           14.80375636486044        8.03337169083369       -9.89988466298018
C           15.28366771459579        7.73279708881451      -11.17081372489022
C           14.49388561139824        8.08998630354467      -12.33214148419123
C           14.78471037517355        7.76970575378724      -13.60799451992739
C           13.94967811778407        8.12197726680996      -14.71017373147120
C           14.21479457819641        7.75590385608725      -15.98121982660226
C           13.39668799381503        8.05654922507984      -17.13450558861522
C           13.75985028626427        7.55403140754101      -18.39066686055017
C           13.00003352908495        7.80513784830018      -19.50367920697942
C           11.83243054895026        8.57493788379663      -19.42450872873817
N           11.04721107848890        8.82134645490411      -20.55988076502335
C           11.42683020601689        8.31325762330464      -21.87885047785526
C            9.80803253621980        9.59597082961716      -20.48213669182898
C           11.47328911370545        9.08370902887924      -18.16956157922066
C           12.23268468053099        8.83209597348887      -17.05578704424693
C           16.51842538024351        7.08152027291970      -11.26890764746726
C           17.21943400419460        6.73520048112599      -10.13980888425725
C           16.72907911045555        7.02260980200182       -8.88087539749772
N           17.47271613245809        6.54726873223674       -7.71277422127743
O           18.70241833943756        6.73540805558133       -7.67707297564488
O           16.86073221075729        5.94450479610010       -6.81368791942625
C           14.41917309786223        6.87475646547517       -4.91524055102131
C           13.17608401752796        6.00696763311197       -4.66991292266359
C           12.27028479866871        6.51329006100193       -3.49173137178882
C           12.96288882316576        6.23570916189615       -2.14642950740656
C           10.88598225187100        5.75213421931012       -3.57719218862067
C           10.99530062361526        4.22490254174283       -3.28655925743825
C            9.64076470369153        3.48062943679416       -3.32866276078239
C            8.61374440200440        4.14359444416859       -2.36689025456790
C            9.09439019334551        4.06752064840593       -0.90600294927747
H            0.63180008181589       -0.90607709773987        0.67889739993011
H            0.73596446201798       -0.55966141658642       -1.04268624131876
H            0.64472566074694        0.76390486600100        0.11259737816359
H            2.87988473016672        0.13468819920990        1.03133896858169
H            2.94294996676815       -1.98773435892632       -1.17484108329474
H            2.71712635566357       -2.32731410104426        0.53552571353012
H            4.23905139006608       -1.65224922825604       -0.03280589016705
H            2.65943585531316        1.74408700758826       -0.90082079053811
H            2.96378516349436        0.43481193708046       -2.00656681595882
H            5.21989758092688        0.07169279030649       -0.97389175992406
H            4.90643995901879        1.32979422752708        0.18874574212506
H            4.63083270510550        2.97743827856603       -1.71314204153368
H            5.05331183998265        1.73002039106446       -2.84693482134412
H            6.87826340099999        2.63720104973381       -0.57565383117974
H            7.48601856699671        0.92504581207635       -3.04316755570408
H            7.28045922895336        0.28885066939284       -1.41772993344196
H            8.63406835227433        1.33368996617860       -1.77352796576792
H            6.93838504030354        3.38900473083406       -3.52298101671841
H            5.84696757206336        4.79637954473825       -1.09218109891691
H            5.39242679150763        4.98945611180781       -2.77470251051523
H            7.39156539622799        6.56685738463300       -1.21174037123937
H            6.71230785930890        6.95552515772460       -2.78506578637177
H            8.27822660221269        5.58409099737992       -3.93052178069412
H           10.10935486619943        6.42559334391380       -1.65723533589933
H            9.04496675165520        8.45961476339166       -2.37169855322892
H            8.95957031040768        7.92669092830006       -4.03223386951707
H           10.83463312959075        9.69131481904565       -3.53363480220662
H           13.92980383767342        8.89140162552892       -3.05281108680027
H           12.97855696688871        9.92018245455233       -4.08931151466198
H           13.37186287650223        8.40943320908936       -6.02006029020163
H           13.86135496013562        8.53788013154876       -9.79342222059517
H           13.58798184398784        8.64071121414617      -12.14774835256315
H           15.67231870192864        7.20298534996927      -13.82198252457589
H           13.06337869509232        8.69063987376646      -14.49613547602341
H           15.10320311191997        7.17573760758561      -16.15943013378939
H           14.65075179644375        6.95513324525793      -18.47325985288179
H           13.30170158961596        7.39912595063822      -20.45268106770128
H           12.41377504953031        8.68273691263621      -22.15132142893614
H           10.72264332544589        8.63577530010844      -22.64319949985240
H           11.44382348919073        7.22489100718205      -21.86863634509708
H           10.02512830632345       10.61669532998695      -20.17149846426647
H            9.12747972385626        9.14150726282655      -19.76389352381011
H            9.30532622714471        9.63186604506338      -21.44681042020516
H           10.58542998904388        9.68379943779872      -18.07998704153004
H           11.92974896333964        9.24005799173356      -16.10820525249242
H           16.92371306291238        6.84517972409690      -12.23616159601256
H           18.16226243160304        6.22169735173959      -10.22054600609954
H           15.10130197659560        6.81724106764961       -4.06145386237475
H           14.99706718177522        6.50923333847247       -5.77259931454831
H           13.47489503249612        4.97127443864979       -4.47517162873784
H           12.57598801695372        5.97330205296384       -5.58513714036298
H           13.88818057720169        6.80263200539225       -2.06022296761068
H           13.21894826682438        5.18336321701567       -2.03749230290993
H           12.32519642588287        6.52181798661959       -1.31172835862812
H           10.54524058163097        5.85575089679134       -4.61785020359401
H           11.45361605401918        4.07888934426863       -2.30483860581326
H           11.69485503878018        3.76298956783898       -3.99384870056900
H            9.77481980215186        2.42584132294544       -3.07232810371410
H            9.24087736854409        3.48997001304297       -4.34779674978840
H           10.06390653610406        4.54086457048064       -0.77074363324975
H            9.19382723444592        3.03609684057463       -0.57427023706550
H            8.39194594095112        4.56567831214449       -0.23956457040062
