46
 energy: -9.084312007331 gnorm: 0.000761751443 xtb: 6.5.0 (97a52f5)
C            1.54016540798450       -0.69721903802992        0.65564220110064
C            2.97207971994339       -0.19706526308575        0.46188474387900
C            3.76015871441087       -1.11400400251412       -0.47161888342477
C            2.98971314644354        1.24467650545609       -0.05193472764523
N            4.34934515516318        1.77770244729133       -0.13655388494265
C            5.13422951282521        1.97949117902868        1.00442306764798
O            4.78740424356309        1.86883811317319        2.16632001231048
C            6.47267135287883        2.33008212939004        0.51119192045050
C            7.53039016919796        2.61028795888071        1.33534779385433
C            8.84343212819587        3.06820631331447        0.95717208743524
C            9.91225532515973        2.91493201402696        1.85164278547126
C           11.17084303383824        3.35844457656291        1.53075710865569
C           11.40711747801017        3.98101458722857        0.31795839554841
N           12.74763476435682        4.45899525173535       -0.01705324042059
O           13.66528938863999        4.28001767215760        0.80002971352986
O           12.92232474530000        5.02815533766751       -1.10683617922547
C           10.36071962871798        4.16164857698504       -0.56904776733565
C            9.09942671147750        3.71823998315762       -0.25797353585323
C            6.41009124589115        2.23823434542052       -0.90759215130174
C            5.13284002281448        1.91420602251572       -1.28762377777879
C            4.67603368250406        1.68491914861832       -2.66578871459890
C            5.38158207974178        0.83677693682224       -3.51748745472158
C            4.94798274947625        0.61572239586655       -4.80517846440975
C            3.80737725191089        1.23971319770941       -5.26837662273246
C            3.10184715050750        2.08968119602081       -4.44098309171436
C            3.53134051511305        2.31279795089386       -3.15226416405485
H            1.52315248061800       -1.71352529632993        1.04919692430491
H            1.00355985254095       -0.70274998765697       -0.29226683260802
H            0.98526605627549       -0.06028313603077        1.34459707064305
H            3.47759114988919       -0.19346666491788        1.44392374189862
H            3.30716894795786       -1.13352644068148       -1.46228621830629
H            3.78669327826489       -2.13837621657372       -0.09961044890776
H            4.78866109566351       -0.77170447330647       -0.58677483352148
H            2.41301883183879        1.89754048414104        0.60861155166673
H            2.51940775503478        1.29355532025346       -1.03511990096711
H            7.35686844827566        2.47061480868668        2.38851890916292
H            9.73710245594872        2.43195456872780        2.79758351182629
H           11.99096799219393        3.23185756270155        2.21657148514161
H           10.55316241017750        4.66502185633914       -1.50105334627605
H            8.28642528665878        3.92400145327299       -0.92948907889157
H            7.23765671899775        2.32585673237851       -1.58654622198195
H            6.26714633039623        0.34691751203222       -3.15139849232264
H            5.49956153098214       -0.04633018926506       -5.45212189906398
H            3.46922036345464        1.06554447650519       -6.27663877934332
H            2.21508525712074        2.58178219327866       -4.80512639549112
H            2.99549843364215        2.99198990014539       -2.51217791668035
