44
 energy: -9.818667927849 gnorm: 0.000702811714 xtb: 6.5.0 (97a52f5)
C            0.64733400833258        0.00850371601557       -0.00761407510471
C           -0.57433541891204        0.02591120758714       -0.02070770796472
C           -1.98383815574311        0.05545304503244       -0.04503264129937
C           -2.72748243827330       -1.10197398785669        0.17134366191041
C           -4.10269446074389       -1.07227255375568        0.13976464882182
C           -4.78090525702109        0.11592007149491       -0.10968854457138
N           -6.21723143543371        0.14640122123569       -0.15850532304027
C           -7.09976994893429       -0.39892523341102        0.79933727021056
C           -6.85029594967167       -1.07386046853033        1.99428168298005
C           -7.91598851022544       -1.49743567868881        2.75035563050422
C           -9.23090219417936       -1.25870140817225        2.34069988441484
C           -9.49537154035318       -0.58889933224560        1.17022887613294
C           -8.42233417261627       -0.15104110791820        0.39227161314598
C           -8.35905849254181        0.57151770587873       -0.85624931653863
C           -9.34900599095707        1.07199349754426       -1.70361851632240
C           -8.96666171289381        1.72123078827354       -2.85300745231517
C           -7.61528386232915        1.87760691384919       -3.17417575049938
C           -6.63040275110494        1.39271880213623       -2.34866672948852
C           -6.99994555294315        0.73956349650564       -1.17281598719089
C           -4.04107632860319        1.27422862206318       -0.32178736715912
C           -2.66611446409666        1.24427387423757       -0.29064741226183
C            2.05890772638329       -0.01087997334981        0.00896592121980
C            2.75398323158984       -1.21641792123649        0.00405342617606
C            4.13300219429742       -1.23499446696390        0.01959265983763
C            4.84064852474452       -0.05013753952570        0.03995296341027
C            4.16648096237022        1.15423259604420        0.04481829408990
C            2.78747464833237        1.17459813909501        0.02933847411349
H           -2.20898292744884       -2.02618824504510        0.36119750608811
H           -4.67040745064363       -1.97341450286777        0.29144204118299
H           -5.83721037243722       -1.24642989448765        2.30998423321009
H           -7.73660090016384       -2.02131322228462        3.67492012301785
H          -10.04810015310679       -1.60326278371813        2.95287388041125
H          -10.50422559084260       -0.39790371229518        0.84935223903267
H          -10.38680399317623        0.94378085614760       -1.45115085662714
H           -9.71856997267738        2.11346251754595       -3.51788277710832
H           -7.34284529458490        2.38553585969253       -4.08484001938939
H           -5.58979602920015        1.50026573268828       -2.59680178258120
H           -4.56194949767318        2.19849271990434       -0.50017215893521
H           -2.10027058327501        2.14471020772377       -0.45813332669827
H            2.19849994908168       -2.13870563365926       -0.01229853904256
H            4.65847130291272       -2.17599635809808        0.01565422293997
H            5.91832053997443       -0.06535862283192        0.05206150732018
H            4.71819184460762        2.08000106408691        0.06055728090872
H            2.25820647016741        2.11229999220072        0.03258824304573
