46
 energy: -8.306804262536 gnorm: 0.000497151988 xtb: 6.5.0 (97a52f5)
C            1.00157422484671        0.04977834314550       -0.49458663558328
C            2.37340698815700        0.25039581944263        0.13936367289537
C            2.27712618404602        0.95607443149097        1.48571748994936
N            3.08049448847098       -1.03412247334571        0.27789912632017
C            4.44078436295670       -1.20988032789801        0.47263111649300
C            5.37272869222883       -0.18223995786065        0.33226689974742
C            6.71727041289516       -0.39861612799890        0.53029901308449
F            7.58891720753769        0.61012356264282        0.30408376987009
C            7.16895134128990       -1.67463088308917        0.90558715205437
C            8.59399513453876       -1.98409369029784        1.13276089943727
O            8.97224996514131       -3.13978046866117        1.05213577968101
C            9.54983746802021       -0.90920856562583        1.48895278475996
C            9.24780934979660        0.02560479399308        2.47728043048132
C           10.14759452085799        0.99263141306808        2.85517682213901
F            9.82235660741642        1.86343804406653        3.83731068348583
C           11.41064272148996        1.04995305347686        2.23628641935495
N           12.35311653308361        2.00687211383576        2.58609382219479
C           12.25387329149101        2.96421021885504        3.69545006227101
C           12.49428908078948        2.26663587071224        5.02786156999112
C           13.19922745099848        4.14205185644972        3.49007201261268
C           11.71018850821568        0.10887185165915        1.25090255657249
C           10.80798662267288       -0.85795177857516        0.87411436626632
F           11.12596154882276       -1.72370261676814       -0.11291785348495
C            6.24030008854686       -2.70218562669022        1.02769589033484
C            4.89968456519941       -2.49067206770534        0.82258672942172
F            4.00876193816377       -3.49938423519428        0.96599904735027
H            0.49273384815454        1.00049241965323       -0.65787371723374
H            0.36637364239716       -0.55787446906982        0.14914811126340
H            1.08333373863913       -0.46100673386741       -1.45446611108044
H            2.98113790679496        0.86401543818129       -0.54625262282565
H            1.67879523797236        0.36731734897368        2.18021939284536
H            1.81137806346179        1.93779843526607        1.39311398393511
H            3.26165848594000        1.08675907504350        1.93476078898685
H            2.45977753674903       -1.80710373610594        0.50010077723088
H            5.05389583616263        0.80216696857435        0.04849927822091
H            8.28963821888776       -0.00475422611528        2.96323637697178
H           13.29916078783546        1.93733651811133        2.21924613945341
H           11.21731453353499        3.34276410174083        3.67145776461900
H           13.49848880221473        1.84539416790331        5.06186563042866
H           11.78753809286849        1.44849309318757        5.16939889884252
H           12.38951844891888        2.95485509294366        5.86719210504024
H           14.23651830812774        3.80910576237862        3.50496425151139
H           13.08170283731416        4.89152679505094        4.27342223533559
H           13.02164547841487        4.62578225336344        2.52924753870952
H           12.66764606594221        0.13472108313942        0.76568996007461
H            6.58050483200429       -3.68825194148125        1.28710558995374
