49
 energy: -9.027831052382 gnorm: 0.000389625342 xtb: 6.5.0 (97a52f5)
C            1.09865286207572        0.21856584368500        0.15009904307002
C            2.48320145519231       -0.37832910818440        0.37103450285919
C            2.41107803395512       -1.74114829554629        1.04580397714609
N            3.22986389231547       -0.46244737354622       -0.89102838878313
C            4.61005912999132       -0.55797536098202       -1.03389845525192
C            5.15890947201763       -0.72317942170920       -2.30005627835397
C            6.53309689038076       -0.79746154814871       -2.51101099528075
C            7.37970081811116       -0.74030109222460       -1.38722500492353
C            6.83236506399686       -0.57584932389444       -0.11791512159139
C            5.47920931660866       -0.47956738254235        0.07742507354599
F            4.99231898366773       -0.32750274460281        1.33318831335299
C            8.82164091903392       -0.85908427123240       -1.53944662632977
O            9.57153623875447       -0.78155490261043       -0.57178021431780
C            9.34021293851545       -1.08975146878642       -2.87900988560911
C           10.70793550944175       -1.26906838666021       -3.06629390879578
C           11.24219926125572       -1.50201769607643       -4.30677739056046
F           12.57895001175169       -1.68279066724254       -4.43808186171935
C           10.38676097501485       -1.56916342119336       -5.42940309350778
N           10.87822842697476       -1.79417506433999       -6.71106305153008
C           12.26422777573360       -2.11782546889744       -7.07425880264059
C           12.57407917103276       -3.57541381897169       -6.76298908742429
C           12.54256230567810       -1.77745851496449       -8.53337181441444
C            9.02116724816879       -1.39375812328901       -5.23930662342927
C            8.47137308420290       -1.13669281008663       -3.98629739544338
N            7.08883537204427       -0.91325282529585       -3.80408131194825
C            6.23103743999933       -0.71351832397759       -4.97469201432962
H            0.56565727402595        0.35485801548613        1.09164108882713
H            0.49555012423314       -0.43504198900373       -0.47918121313720
H            1.16229505310969        1.18708573762562       -0.34634617891697
H            3.05850162400728        0.30940881586805        1.01378086272577
H            1.87043916706287       -2.44910951040397        0.41874025438181
H            1.90141276636978       -1.68677272630399        2.00824855175955
H            3.41013444946653       -2.14410995925571        1.21299075034411
H            2.62557966865776       -0.65995194334876       -1.68493451093828
H            4.48707327834408       -0.81143893404976       -3.13160970072517
H            7.48717976947337       -0.52797774045747        0.73233122058591
H           11.36281106095116       -1.22671238528545       -2.21574712330799
H           10.22935094461312       -1.97224055874813       -7.47376388997375
H           12.89900668574712       -1.47392704487340       -6.44251457659942
H           11.93798863442822       -4.23436911333858       -7.35284860393419
H           12.39143974484892       -3.79488891025608       -5.71086564514528
H           13.61226095306822       -3.82263922527635       -6.98671797117998
H           11.93152845854542       -2.39165297845505       -9.19386004070218
H           13.58714335290491       -1.95155868401343       -8.79350097360788
H           12.31023656091673       -0.73363880960925       -8.74540004480593
H            8.37999713912615       -1.48086246006551       -6.09481599126021
H            6.79262103047173       -0.27269736641912       -5.79455334955585
H            5.42310874796348       -0.02254366569730       -4.74684931007318
H            5.81072091574630       -1.66366699280007       -5.29762718854739
