45
 energy: -8.348827686604 gnorm: 0.000807885676 xtb: 6.5.0 (97a52f5)
C            0.99592370395169       -0.08254020699807       -0.23566377219254
C            2.36458613137889        0.44262601543514        0.18123397549565
C            2.25251307248332        1.69827714997178        1.03573949686191
N            3.13911634554981       -0.59287066140708        0.87858929804689
C            4.51643704712671       -0.61184131573220        1.06348224812740
C            5.09065488951959       -1.60001287171378        1.85221055511683
C            6.46335037558379       -1.67163691194290        2.06534369775727
O            6.96944559204642       -2.69180516513641        2.86151715164894
C            8.34336336140557       -2.75116224852478        3.06218611170084
C            8.86634225099523       -3.77133589223898        3.84996493870372
C           10.22795032354810       -3.89019339605846        4.09554656031630
N           10.69822881238533       -4.93981031153182        4.87630591176203
C           12.07826956958525       -5.13434947581392        5.33984354109709
C           12.39837375825611       -4.18256236017608        6.48449446918577
C           12.32889858664873       -6.58795992369368        5.72273400457903
C           11.10396281231520       -2.93665508646591        3.52796809657127
F           12.43700984050652       -2.99882293981980        3.75770412944124
C           10.59676770557917       -1.92998584211420        2.74708709988196
C            9.23295306527183       -1.81580002154517        2.49832126606148
C            8.72342683320078       -0.74138477489868        1.66583425581303
O            9.46855553672080        0.09044994226342        1.16180131437673
C            7.28699556776140       -0.70202136579287        1.46043269543478
C            6.71428275563647        0.28864240540062        0.66940915601272
C            5.36020923090259        0.34945831125007        0.46135893290395
F            4.84576925030916        1.33281016540807       -0.31479535415060
H            0.43965294587413        0.65954643173927       -0.81006626127325
H            0.39967716130483       -0.33583348257665        0.64051021214600
H            1.08728503275529       -0.98299699655593       -0.84399562775220
H            2.93786393753936        0.68082026451837       -0.73108916042769
H            1.71948202307927        1.48391708953979        1.96129664575085
H            1.71618884980321        2.49201529592112        0.51452562833032
H            3.24018285831506        2.07472297324566        1.30301385996086
H            2.54897550562064       -1.21946113771803        1.42027583011932
H            4.46421953619779       -2.33936616123215        2.31404295635769
H            8.18762975381457       -4.48751320258525        4.27262395902502
H           10.03788503877402       -5.52873912964665        5.37761381306872
H           12.72173928055872       -4.88754823703901        4.47821520171727
H           11.74956938179167       -4.37975333905649        7.33717487170064
H           12.24176520969738       -3.14672339984724        6.18264770984773
H           13.43140908092374       -4.28703329779454        6.81752557497077
H           11.70655394372487       -6.87427703169809        6.56978810643879
H           13.36880657446560       -6.75396070918746        6.00574510119387
H           12.09105384432788       -7.25914466401224        4.89724047701263
H           11.26908190462989       -1.20975189652932        2.31861696948739
H            7.34824171813229        1.02462741239490        0.21026435177372
