45
 energy: -8.467556716498 gnorm: 0.000562000000 xtb: 6.5.0 (97a52f5)
C            0.94070093924547        0.18424223522422       -0.31793566211670
C            2.30594747273261        0.43165331246869        0.31250643073994
C            2.20799138841369        1.30019829585975        1.55909807178658
N            2.98383785367662       -0.83492257951756        0.61626313396132
C            4.35029347624747       -1.02286705805202        0.78121624154296
C            4.83888228394483       -2.27788466802470        1.13302292215045
C            6.19032122583159       -2.48997446134178        1.28317484037819
S            6.68720528374091       -4.02503628017519        1.69254684000230
C            8.34721248372954       -4.09481696081067        1.79526078331931
C            8.91661203490497       -5.31070141072097        2.09766698444632
C           10.29890461842973       -5.44633063479790        2.18954012796960
N           10.85410436687631       -6.68885662104852        2.46923372883992
C           12.27762232474493       -6.98037820170046        2.68106045611670
C           12.71265916968847       -6.54476041207569        4.07350271830234
C           12.58051869005671       -8.45162481334926        2.42395078383824
C           11.10065262256486       -4.29929297717651        1.97928849512325
F           12.44831983881291       -4.37114097287289        2.08844181398181
C           10.51005615481625       -3.09585898816913        1.68109298716010
C            9.12498536741490       -2.95817452701209        1.57757037272198
C            8.55795279794343       -1.65186212380244        1.24611212738212
O            9.30817584925327       -0.69514734252675        1.08402809936568
C            7.11568530014626       -1.46367094255059        1.09776396630419
C            6.62142287647377       -0.20504885706911        0.75183698580072
C            5.27771710297492        0.02911836031105        0.59184833032796
F            4.85148930034652        1.27276827029581        0.26753440396494
H            0.45963211281744        1.11748212782077       -0.61220313075974
H            0.27944292194580       -0.32068441905706        0.38535927982564
H            1.02471779864109       -0.44675088573789       -1.20294622473723
H            2.94366733412478        0.94187820980650       -0.42968174348390
H            1.61548508907820        0.80214509699668        2.32561665725135
H            1.73993915226391        2.26113990962907        1.34365783054959
H            3.19693820303299        1.48926075992251        1.97734291685652
H            2.33567440120337       -1.56875879549250        0.89147764971392
H            4.16506804200308       -3.10325521751542        1.28292842688886
H            8.27402651043306       -6.15975646743916        2.25206682768529
H           10.25265765155980       -7.45935411721906        2.75033843978162
H           12.82051355468603       -6.37870197422059        1.93199552359951
H           12.16807167244425       -7.10177520564804        4.83506646595155
H           12.50724368104416       -5.48537848623598        4.22889136715926
H           13.77838939960992       -6.71139308665267        4.23250710035422
H           12.05821933008257       -9.08232987426752        3.14252053059708
H           13.64661231617051       -8.66285265543413        2.51257559964820
H           12.25754957797739       -8.75102287658571        1.42667533786893
H           11.13279145409073       -2.23473016762995        1.52210709871198
H            7.31301897377850        0.60406848360023        0.60463806313527
