39
 energy: -7.970138129781 gnorm: 0.000476305766 xtb: 6.5.0 (97a52f5)
C            0.89494560109937       -0.04627495411054        0.85784953325366
C            2.33153215257158       -0.19572005275407        0.36810379548983
C            2.58981112274454        0.66994234341857       -0.86042811546066
O            3.24191940728228        0.13554971881656        1.43788640491108
C            4.57546979660776       -0.25330693533834        1.27200349917088
C            5.49310513196456        0.22513559503649        2.21272297299913
C            6.82637886360350       -0.09130269302674        2.13484481143380
C            7.30592223617021       -0.90607857041129        1.11397998724919
C            8.67234264358204       -1.22352280795965        1.02592339375630
C            9.86404029862435       -1.48310569972434        0.94360324595855
C           11.23029828455139       -1.77001770970287        0.83712504806147
C           12.13906652289965       -0.77394626975249        0.79539641478706
C           13.52762252337732       -1.05006284346066        0.68217276757438
C           14.49062310607867       -0.03508487493744        0.63686643396158
C           15.82146488756407       -0.34106325111228        0.52615242845436
C           16.22779745535797       -1.66775909898421        0.45809226664726
C           15.30263522220977       -2.67629063709317        0.50062972213802
C           13.93583872302454       -2.39502396999582        0.61329414030292
O           13.02789375954451       -3.44204197806399        0.65354213833082
C           11.67810257980896       -3.16809074923881        0.76597917096767
O           10.84221055133199       -4.06077260258032        0.80801498047431
C            6.39754468271741       -1.39432743912336        0.17918183171414
C            5.06242132537510       -1.07945629427487        0.25394454609368
H            0.17381947271736       -0.32036160739907        0.08728549844463
H            0.70409238378236        0.98632095795395        1.14683263098590
H            0.71615244188135       -0.66870555442187        1.73445132085422
H            2.50300496604432       -1.25803863313665        0.13025947357839
H            2.42146468985769        1.71846800577001       -0.61914067413034
H            1.92712614440171        0.40407198459725       -1.68416664724391
H            3.61830613657392        0.58194253761989       -1.20759872496402
H            5.12613187335509        0.85651771833347        3.00237497118891
H            7.51895480682213        0.29035839888727        2.86543884690950
H           11.80879231219725        0.24801942937412        0.84712442142419
H           14.17178524118363        0.99157657460346        0.68955476689470
H           16.55516709233967        0.44733561801360        0.49201216014641
H           17.27586767949094       -1.90287330143898        0.37102585796199
H           15.60860548159746       -3.70600350324771        0.44763143011883
H            6.76074443471460       -2.02807693557516       -0.61187747242527
H            4.39003796495825       -1.48064991554366       -0.48138927806237
