39
 energy: -7.365528534790 gnorm: 0.000640809422 xtb: 6.5.0 (97a52f5)
C            0.96763791968856       -0.09625298784104       -0.73625136442486
C            2.42983004386088        0.04281893130282       -0.32641864346276
C            2.67308059558742       -0.54294244968326        1.06035763438760
O            3.27109727378783       -0.59202318246982       -1.31282198765220
C            4.63334032438099       -0.27543608316791       -1.27097380450583
C            5.47895446646901       -1.01445037467860       -2.10476938949648
C            6.83105787083483       -0.78071877889893       -2.13896365412211
C            7.40278719592368        0.20570686581035       -1.34146279584795
C            8.78716742170968        0.44828360218225       -1.37245151423039
C            9.99034523563529        0.66324969335231       -1.39538520319325
C           11.33132061460115        0.89838767710723       -1.41615986417544
C           12.33882350120237        0.05274174548066       -1.49535252996125
C           13.67064560320577        0.44691986236190       -1.50234370176821
C           14.13775302681842        1.69137707391385       -1.43887065705967
C           15.42486799780550        2.06214582547198       -1.43296517358253
C           15.85230932629731        3.38738061343796       -1.36394893765517
C           15.02059167645495        4.44634669846428       -1.29708925956102
O           15.26243163253124        5.73867365711245       -1.22888974486807
O           14.43436124967895        6.84400271685225       -1.15773417445930
C           13.11274222290740        6.70257195788715       -1.13673352346346
C           12.19894763674990        7.50895405238361       -1.06722594449999
C            6.56729724988732        0.95011883243342       -0.51355262052387
C            5.21377027911726        0.71887740505275       -0.47688470591106
H            0.30189101899637        0.40937102780534       -0.03632776627089
H            0.68664538231588       -1.14795079118475       -0.76983582495015
H            0.80069107553163        0.31761628121998       -1.73058277933486
H            2.68708697592655        1.11417214270942       -0.33920961483111
H            2.42227031459783       -1.60268516396099        1.06573188784630
H            2.06232332310162       -0.05019647146801        1.81715611577374
H            3.71762870326634       -0.45799839718520        1.35652028362751
H            5.04033452454410       -1.77806627313316       -2.72226687458276
H            7.46629264689590       -1.36062634904968       -2.78642971477736
H           12.12633050570676       -1.00061936596217       -1.55739287101466
H           15.41277263305262       -5.80759541000333       -1.19700746408899
H           16.16951242547592        1.28439213978773       -1.48288586443761
H           16.91195765433692        3.58388896063430       -1.36443441664078
H           11.08108909750190        8.75178185823137       -1.04072930659299
H            7.00165725041137        1.71849627885477        0.10302613460785
H            4.60010610277020        1.31900617872967        0.16884963556962
