96
 energy: -17.346598965207 gnorm: 0.000717101030 xtb: 6.5.0 (97a52f5)
C            1.23426442669435       -0.38195693881569        0.35995004106447
C            2.61193696262879        0.03482966085156       -0.12494380165655
C            2.72072160780785       -0.09841937332092       -1.63549786685264
Si           3.10372712849783        1.79951256743374        0.42199016900591
C            2.52234583006809        2.96266094344239       -0.80043071450041
C            2.13315060014342        3.75737556492440       -1.63271270559969
C            1.70123800729471        4.70041911186612       -2.58520180394113
C            1.10332148872146        4.32134139695698       -3.78970818283767
C            0.79829235899828        2.96612604885432       -4.29489196190174
O            1.02173076568076        1.90279454945513       -3.75686116811472
C            0.16070881430177        3.16801730324416       -5.60949259367837
C           -0.34129357825270        2.24647961355681       -6.50946550989793
C           -0.91173523132717        2.70606122121141       -7.68153957241929
C           -0.98174794491613        4.06545289905753       -7.94965948998004
C           -0.48072981007423        4.98855593322941       -7.05341900368806
C            0.09854728923830        4.53801900655420       -5.87647974492303
C            0.69078305411814        5.26222655695486       -4.74936247416510
C            0.86598866259325        6.64056199103504       -4.55727523772057
C            0.49168187204565        7.59036721171233       -5.52793791998724
C            0.20215343352605        8.42250461871603       -6.36458640043648
Si          -0.15215784856649        9.73632215564740       -7.52183128336853
C           -2.04972189563962        9.94761367612260       -7.55434684975472
C           -2.53894245399513       11.20103732994211       -8.25742013740788
C           -2.71228235159588        8.69115054974221       -8.09161509075452
C            0.72450810753249       11.27323071260861       -6.81198900504396
C            0.88877257586633       12.40784994165598       -7.80747765014051
C            0.05549233244365       11.71614406288125       -5.52312818864790
C            0.60872417636895        9.30550480549165       -9.22022601988260
C            0.62155973984399        7.80370265575672       -9.44808579221222
C           -0.02964575139247       10.05152925801178      -10.37783316196872
C            1.45289909728737        7.01964657798177       -3.34705199120073
C            1.75996531333188        8.37451078992071       -2.84157393378356
O            1.55555543949904        9.43804299571125       -3.38699719839090
C            2.37191744407201        8.17299589629312       -1.51452733024431
C            2.84421797482988        9.09563574824467       -0.59972544868847
C            3.37268617227124        8.63749870710201        0.59243963143518
C            3.42728212372205        7.27881897676107        0.86771152399350
C            2.95682433118076        6.35476856129984       -0.04384439643034
C            2.42675731486139        6.80332457506195       -1.24477166135080
C            1.85713748146394        6.07937771181909       -2.38374129541768
C            2.30294623835636        2.18592941132640        2.11491574247589
C            3.11285985933071        3.14506928718232        2.97003551551388
C            0.88347250268349        2.69285184617205        1.91927024068839
C            5.00633066571140        1.91144530244559        0.57231782985882
C            5.73599899998288        1.04468911142030       -0.43913759289397
C            5.46628102669987        3.35770490545471        0.48296692350303
H            1.01020933256215       -1.41191479532644        0.07687370330770
H            0.46501765098084        0.24945605229744       -0.08505427721370
H            1.14251486719523       -0.31162267031465        1.44414529602576
H            3.37182878703098       -0.59046188387916        0.36431263342841
H            1.98309756890019        0.53632888181410       -2.12742535936428
H            2.54055731218367       -1.12416828824248       -1.96104045913457
H            3.70026139376716        0.20234176010897       -2.00524308798620
H           -0.28349045700028        1.19555486671665       -6.28646188152215
H           -1.30906263995593        1.99994270034515       -8.39213626943161
H           -1.43481180566709        4.40638547654856       -8.86605972207885
H           -0.53931033701289        6.04293282117424       -7.25003565928646
H           -2.26544385461942       10.03305758276979       -6.47886022548014
H           -2.28937676403072       11.17994570293466       -9.31722460186877
H           -2.10093950684237       12.10300695702265       -7.83083909001505
H           -3.62346060382522       11.29704975029147       -8.18314452626273
H           -2.51542829479787        8.57304009706894       -9.15695073615104
H           -3.79551715098486        8.72414344262621       -7.96219492944467
H           -2.34161905859141        7.79774293511960       -7.58667792794818
H            1.71611253345993       10.85817842779969       -6.57658263106408
H           -0.07774472201270       12.79928097523756       -8.12147904005242
H            1.42130319908642       12.08488005371601       -8.70283401054533
H            1.44908067301391       13.23719269262349       -7.37260152156354
H           -0.94514071757447       12.10293050494750       -5.71654460398122
H            0.62369849270161       12.50621226291794       -5.02932543378290
H           -0.04023503277611       10.88579744897245       -4.82115949474974
H            1.64259479353450        9.65692990612290       -9.08723577777006
H           -0.39416313760323        7.41470592527865       -9.52050357457633
H            1.11807146213799        7.27913404845874       -8.63023373334271
H            1.13908009861262        7.54468831546486      -10.37331188279198
H           -1.04173742982352        9.69101766305968      -10.55964009504782
H            0.53354474033099        9.90821569332395      -11.30160020083193
H           -0.08786782162356       11.12343151700346      -10.18697296689058
H            2.79332127618710       10.14625107122423       -0.82575051878756
H            3.74463574599574        9.34403661989358        1.31626873113548
H            3.84113898423763        6.94034290417491        1.80341388006298
H            2.99241119876837        5.30135387422225        0.16357891537594
H            2.28687967020345        1.20027505466634        2.60079463489171
H            3.16618955734906        4.12706112647807        2.50013960308027
H            4.13160089368961        2.79030564113914        3.12900469097867
H            2.65587221782266        3.28245888464272        3.95146706857054
H            0.89101091064308        3.66352120564222        1.42162199168398
H            0.36813577303588        2.81669864017935        2.87333863584980
H            0.28945047738838        2.01826513374140        1.30280286663098
H            5.19142977890631        1.51987333965173        1.58244853462000
H            5.53320527216916        1.38761038224498       -1.45400487465084
H            5.43908777007536       -0.00227955052248       -0.37016968539113
H            6.81648982301842        1.08990081019701       -0.29251701755207
H            5.25240747920694        3.76547897977599       -0.50571753828010
H            6.54145779549831        3.44511848198329        0.64842363739388
H            4.96568745024227        3.99432513750284        1.21166109457671
