100
 energy: -17.904834621466 gnorm: 0.000491955483 xtb: 6.5.0 (97a52f5)
C            1.27143033632459       -0.08765038878180       -0.33981245334117
C            2.64397394991754       -0.02052085776223        0.30670309921888
C            2.73825472283599        1.15455676448727        1.26609241831305
Si           3.15490211019419       -1.63937455495630        1.18667031116480
C            2.60683430802915       -1.61037159883865        2.88560014941308
C            2.22938725578317       -1.61625219750110        4.04280915591264
C            1.78523357795711       -1.64211629461216        5.37414153697934
C            1.68936985518488       -0.44063489992733        6.11553208952241
C            2.04076108104599        0.79127503310332        5.54861003780323
C            1.94837201621836        1.98241466166048        6.25963334379965
C            2.30262096761022        3.23366435457675        5.68470101133388
C            2.20076908077207        4.38119174827845        6.40476062238494
C            1.74193503562666        4.35473754218520        7.73682754603900
C            1.39311394915661        3.18124882204852        8.32597038190917
C            1.48292844184764        1.95541167659844        7.61113223025658
C            1.13333120473873        0.73837653961163        8.18540621145491
C            1.22198729602703       -0.46811509319698        7.47848065312739
C            0.86094720534399       -1.69745959097515        8.07908618204075
C            0.39816803322465       -1.72382332522013        9.40395408709280
C           -0.01592231285319       -1.74704600185219       10.54839749191357
Si          -0.67730025529275       -1.76870948489462       12.20733726828671
C           -2.33057242727138       -0.81570100345775       12.14940360242983
C           -3.17957328861927       -0.93941055850894       13.40162689216678
C           -2.09162771011712        0.63164228744755       11.75677662930674
C           -0.93296406782795       -3.60937679136279       12.63280637658582
C           -1.07435223856177       -3.88383874256635       14.11923341755288
C           -2.07880929404468       -4.18659433501631       11.82068184158699
C            0.61025359075154       -1.00133758278678       13.39073566392739
C            1.41409962862654        0.08058159282584       12.68963974106684
C            0.01668708561458       -0.51200841503826       14.69915339938006
C            0.96184957184577       -2.89977029589380        7.33967025949826
C            0.61302749173814       -4.13210223064939        7.90779568159842
C            0.70382811965710       -5.32300026402031        7.19598371154797
C            0.35121254191929       -6.57480022056365        7.77075557939907
C            0.45102408638107       -7.72183359845369        7.04959268396861
C            0.90648058206635       -7.69449777297028        5.71638298830500
C            1.25410414122394       -6.52060056941120        5.12735343929477
C            1.16631784375522       -5.29537233268597        5.84346078991763
C            1.51593571333210       -4.07832340337472        5.26935423336068
C            1.42796870293125       -2.87185013428897        5.97633134501053
C            2.36174594491961       -3.12823750213492        0.28708855567100
C            3.17063473214262       -4.40762176281415        0.40925456563024
C            0.93492734527107       -3.33712497749128        0.76816276125699
C            5.05817963799077       -1.80852982691964        1.13702750526012
C            5.78036996093988       -0.47340019850623        1.18852239505519
C            5.53750780534214       -2.73069357245136        2.24647482579695
H            1.04632225961762        0.82938548281741       -0.88782717836894
H            0.49632487730888       -0.20948469727841        0.41756348632152
H            1.18974928957908       -0.91809421386558       -1.04224590965934
H            3.40717213705735        0.07267258518968       -0.47889738959367
H            1.98020822697499        1.07019297218506        2.04616841001755
H            2.57570188847388        2.10479790977280        0.75334184483696
H            3.70837058468493        1.20289032129460        1.76129534280622
H            2.39406907188045        0.81821448965831        4.53434072667730
H            2.65362893007503        3.25725932490395        4.66721858008461
H            2.47246811694657        5.32327736256972        5.95675447802229
H            1.66901763929868        5.27706300457279        8.29002863379579
H            1.04280126231766        3.16479945294131        9.34382685004315
H            0.78464146277470        0.72503466211407        9.20180024687292
H           -2.83623342051312       -1.33298899344904       11.32008831025292
H           -2.68694989249320       -0.47918067538673       14.25736391760887
H           -3.38005455917062       -1.98036384204228       13.65558121036098
H           -4.14252413816584       -0.44040321238775       13.27675818069891
H           -1.60170920374742        1.17683532679115       12.56382525882835
H           -3.02886099126211        1.14715612936784       11.53766689299345
H           -1.45346074477268        0.70559900425430       10.87407240063254
H            0.01512232306405       -4.04059037848176       12.27687259720278
H           -1.96504358788138       -3.40443279860638       14.52428399054522
H           -0.21528403305611       -3.51417202816992       14.68129923814269
H           -1.16230905676010       -4.95375983106737       14.31760880719977
H           -3.03348405645578       -3.77235801213538       12.14648402937052
H           -2.13922721916762       -5.27144361289529       11.92809714125402
H           -1.96839074796463       -3.95950368109114       10.75840328985725
H            1.26273162071266       -1.86528460808637       13.58665069865019
H            0.77981018282694        0.92962797304058       12.43328720342855
H            1.85904721847829       -0.28676650460135       11.76301836103383
H            2.22079647009476        0.45341378181674       13.32380739179710
H           -0.59299403849038        0.37733801915821       14.53877930478501
H            0.79680089045301       -0.24264833131929       15.41392797155202
H           -0.61574224684681       -1.26825512310796       15.16597827875039
H            0.26471906439243       -4.15994283546386        8.92405474738886
H            0.00326595761958       -6.59929540154103        8.78925308922545
H            0.18023299879248       -8.66420486618562        7.49757773559434
H            0.97798568504352       -8.61633939753815        5.16217519186355
H            1.60190059529996       -6.50311716087076        4.10863909179754
H            1.86523275566033       -4.06514112931120        4.25322310777895
H            2.36111222989314       -2.80168447953185       -0.76258486167963
H            3.21598401476342       -4.73492559699375        1.44869479635101
H            4.19282540134340       -4.28134999201513        0.04966158582004
H            2.71835168279735       -5.21836317015160       -0.16528644372945
H            0.92685582376010       -3.64643435061204        1.81437142669101
H            0.42854221312544       -4.11475278292718        0.19288847764804
H            0.34030143550099       -2.42634127784196        0.69616685370000
H            5.23186591848403       -2.27564853683129        0.15717576254225
H            5.59209923160104        0.02756860692299        2.13890787020209
H            5.46331551938650        0.19503305805208        0.38695257746812
H            6.86080923823076       -0.60359194453845        1.09994227993841
H            5.35624610909410       -2.27852509682903        3.22275457092479
H            6.60876300728418       -2.92661177317082        2.16905226194973
H            5.02101124261116       -3.69048977394516        2.23469502234102
