110
 energy: -20.414281178932 gnorm: 0.000905890278 xtb: 6.5.0 (97a52f5)
C           -0.18626214499387       -0.02424554547222       -0.77294313646929
C            1.23497068035840       -0.55837257249068       -0.79800480180450
C            1.24621345600487       -2.07436442544509       -0.90790516297315
Si           2.31349164030388        0.21071785582900       -2.17660353443261
C            2.15904188618357       -0.76544681248880       -3.66263576553118
C            2.07268325888439       -1.47074529843764       -4.64978145121694
C            1.96441535997265       -2.28933928458526       -5.78401095974704
C            2.88212557427648       -2.14965818090695       -6.85769337348734
C            3.90608401352511       -1.19925215494740       -6.82255550867581
C            4.81086574446406       -1.05669194178339       -7.87046134466595
C            5.85399434382752       -0.09214572267754       -7.84043497015266
C            6.72194562034209        0.02262250401934       -8.87923393034721
C            6.60538781927475       -0.81269184973087      -10.00723303965530
C            5.62244601844961       -1.74798926079743      -10.07729093980546
C            4.69241392053887       -1.90350580377281       -9.01417257458199
C            3.67371258021521       -2.85140728291252       -9.05537834921956
C            2.76301081739290       -2.99878874488488       -8.00645824065763
C            1.72680886526075       -3.96733618877024       -8.05509414481336
C            1.57980849074455       -4.81263546335515       -9.16567186608748
C            1.39575262988458       -5.57484719621885      -10.09562644469045
Si           0.94253838907702       -6.72917409485564      -11.38092943831947
C            1.54224340749423       -5.99788812975794      -13.03865715458207
C            1.46122521992963       -6.95099925179102      -14.21685133461691
C            0.84230629448279       -4.67963776118084      -13.31601486243142
C            1.83607938651855       -8.35838742792982      -10.95530477474565
C            1.24160141753326       -9.58135681614439      -11.63007000306614
C            3.32840627444296       -8.22433657944096      -11.20007105884194
C           -0.94630665389111       -6.99541912665698      -11.29631260381578
C           -1.65842383813301       -5.73672468959061      -10.83099582620859
C           -1.54816867273409       -7.54909534705988      -12.57442591556742
C            0.82162973134152       -4.09973222395507       -6.99002767236494
N           -0.14812143337739       -5.03836391624850       -7.08251742315326
C           -0.97430115629233       -5.11308078582156       -6.05558800620296
C           -0.86057144217170       -4.26750909177914       -4.91231586025386
C           -1.80731215253177       -4.41517616705034       -3.84697150243817
C           -2.80704096540681       -5.31859267163890       -3.89158299701521
C           -2.96975932630306       -6.18890559103226       -5.01730448209819
C           -3.99546690434566       -7.11601593024498       -5.07869785168359
C           -4.14638827833445       -7.96629964632636       -6.18448056171999
C           -5.19363120204586       -8.91842209163588       -6.26709577359265
C           -5.31126534651097       -9.72839536379693       -7.35405694597009
C           -4.39543601017372       -9.63650592511754       -8.41524826049026
C           -3.37681073060028       -8.73597308946669       -8.37258756580608
C           -3.22130059985907       -7.87346050223213       -7.25946816851950
C           -2.18577836247438       -6.93144555488537       -7.18669126762151
C           -2.04629843090436       -6.09207738842639       -6.10016711511700
N            0.08414613770842       -3.34584685481143       -4.79639696991745
C            0.93946496203814       -3.24905774284878       -5.83862534013357
C            1.73879133485879        2.00177096697927       -2.51563254629408
C            2.84621407988113        2.90024185146739       -3.03786311686723
C            0.54515641826591        2.00337994425300       -3.45644998908001
C            4.14234869074372        0.22387035604529       -1.62086063553900
C            4.50299900114480       -0.93671817735433       -0.71026687270451
C            5.06150450790273        0.27374136047416       -2.83051614392538
H           -0.74942175170565       -0.43659454596568        0.06639758818671
H           -0.71625339682926       -0.30217493565529       -1.68445577025707
H           -0.21351219149455        1.06253051055002       -0.68485814905361
H            1.75399188105460       -0.24277131182837        0.11802670236550
H            0.74731514984438       -2.39289634382303       -1.82430440110276
H            0.72400309145477       -2.54047390197001       -0.07026518452592
H            2.25925740871375       -2.47569464838227       -0.93588974353830
H            3.99815690068444       -0.55905132454928       -5.96446908784310
H            5.94509670928670        0.54831640717388       -6.97997199329948
H            7.50873889245608        0.75852658101947       -8.84409970861344
H            7.30474510124332       -0.70525810415770      -10.82038369086002
H            5.53582291360077       -2.38459823343011      -10.94108668282145
H            3.58727680182096       -3.48686417778974       -9.91767685361504
H            2.59982731969965       -5.80104132686563      -12.80728402550137
H            0.42680361846350       -7.20237388612328      -14.44778079273347
H            1.99286325703361       -7.88261497118240      -14.02323405146293
H            1.89373097940096       -6.50626764800284      -15.11506742874295
H           -0.20724504463639       -4.84237338255206      -13.56177936524612
H            1.29687657296369       -4.15455162659075      -14.15837928805114
H            0.87878550401892       -4.01822454531675      -12.44831350351912
H            1.65208977200981       -8.42209554993542       -9.87209519008853
H            1.33499476765712       -9.51618382256590      -12.71361359178060
H            0.18239874801762       -9.69682223670661      -11.39555743297521
H            1.75031473287406      -10.49403108257479      -11.31422704093014
H            3.54270071327316       -8.15286991383029      -12.26673414115889
H            3.87622350906327       -9.08590573727876      -10.81348883223537
H            3.73113457622619       -7.32833721771788      -10.72374651983853
H           -1.00584587996187       -7.75704985627218      -10.50552324289921
H           -1.22000812893137       -5.34347858737974       -9.91246254269439
H           -2.71762632853559       -5.92262676512202      -10.64371190272794
H           -1.59102190771781       -4.95242877018150      -11.58526409387092
H           -1.54373549432073       -6.79551054679707      -13.36193407723245
H           -2.58605482348175       -7.85289908438254      -12.42548293597635
H           -0.99688980243430       -8.41558219006195      -12.94117598763857
H           -1.69928434895822       -3.76955892874382       -2.99297552611655
H           -3.50261169217754       -5.39934725622205       -3.07413869716998
H           -4.69255525236365       -7.18702611396747       -4.26337490607513
H           -5.89648249849491       -8.99065215817268       -5.45491457681734
H           -6.11214592611989      -10.44801200865884       -7.40490478695702
H           -4.50371109727983      -10.28641203032310       -9.26836346444056
H           -2.67627132463278       -8.66840300808644       -9.18616334037497
H           -1.48127884185666       -6.85801512111932       -7.99380057294537
H            1.43324124539074        2.34871249510196       -1.51841515080734
H            3.18894139765708        2.55776812459528       -4.01484440332963
H            3.70619280226301        2.92179638222966       -2.36737105173960
H            2.49824552229473        3.92775968853948       -3.15941896345533
H            0.83878711028476        1.64716552266116       -4.44495209830612
H            0.13291189113790        3.00689738633288       -3.57775387546470
H           -0.25555437674331        1.35318072112866       -3.10424755868634
H            4.21395545378864        1.16303557018644       -1.05422567303083
H            4.40829404533615       -1.88430239041572       -1.24160199359468
H            3.86292626887534       -0.97979251659458        0.17174749264501
H            5.53557579967793       -0.86207178117828       -0.36405011161262
H            4.99418296961792       -0.65522161709020       -3.39858016375868
H            6.10457100141571        0.40304448864102       -2.53566412948030
H            4.80248135544225        1.08628348601878       -3.50925805378203
