81
 energy: -18.052437245109 gnorm: 0.000604133941 xtb: 6.5.0 (97a52f5)
C            0.83862520649079        0.05402666640916        0.03694890713675
C           -0.38336755486874        0.02633637903800        0.10929691402800
C           -1.77921710721184        0.00163461134686        0.14680954131238
C           -2.47823757065139       -1.18295589191566        0.16206909619144
C           -3.88137123930318       -1.22986477320878        0.16046791905200
C           -4.65797377717073       -0.09461180597157        0.14386641776446
C           -6.05235144803202       -0.16260467111842        0.10379829472536
C           -7.27316778561883       -0.22129169065747        0.03040102960906
C           -8.66994502308521       -0.29701031690687       -0.08797548068834
C           -9.26883238166533       -1.36785122812834       -0.74867328755824
C          -10.63478680579394       -1.43980177291671       -0.87860433473475
C          -11.45625637710732       -0.44358383950572       -0.35407943006774
N          -12.87903051937702       -0.51456000797320       -0.50167446486188
C          -13.53632040188710       -1.79152474939869       -0.53794579645568
C          -13.13589745058479       -2.82323483659303        0.30772576147426
C          -13.76359879223220       -4.04784121890082        0.26782509125239
C          -14.80246474511507       -4.26529913230503       -0.61620315458901
C          -15.21231505118072       -3.25171577729055       -1.46049995721565
C          -14.58671378554715       -2.02594446030813       -1.42201775733740
C          -13.65195144238347        0.68484718295472       -0.66442411341584
C          -13.15956569922266        1.75662732048388       -1.40510249967920
C          -13.90769263299793        2.90065162805781       -1.56875750976590
C          -15.16158054727206        2.99588968403904       -0.99745825180817
C          -15.66505373068833        1.94101880229816       -0.26149192485779
C          -14.91870524599745        0.79598013377880       -0.09646233958839
C          -10.85702805924457        0.62554827633837        0.30986970598403
C           -9.49071599804831        0.69761535505061        0.44019444401488
C           -3.98834715145103        1.17900915679037        0.14182817214114
N           -4.54521517535861        2.37269851651871        0.13261324593979
S           -3.33703245003605        3.49113434570899        0.12764626521038
N           -2.05680309668583        2.45625760280558        0.13548019665753
C           -2.53235914297767        1.22782634970470        0.14367923354493
C            2.23682185822823        0.08737954974912       -0.08389256192003
C            2.86708125816290        1.13422483946323       -0.75387050693233
C            4.23416475188833        1.16106759255096       -0.89009357304931
C            5.02518898856017        0.14195211144916       -0.36254711192594
N            6.44850282775780        0.16121930110696       -0.52104057515460
C            7.15211988411095        1.41258079677036       -0.57077313606290
C            6.79105056804106        2.46739478326174        0.26405966815272
C            7.46620929743922        3.66610965385401        0.21348895341532
C            8.51404335032959        3.83443293473266       -0.67066639804558
C            8.88467715823545        2.79775220697441       -1.50494197478246
C            8.21133915554382        1.59795185886843       -1.45598481386831
C            7.17483184833230       -1.06719460918076       -0.68345578913390
C            6.63714124723889       -2.12279034336009       -1.41591927089265
C            7.34004070790510       -3.29516750191413       -1.57921497117112
C            8.59322777886457       -3.43558007101542       -1.01577491695586
C            9.14133522533667       -2.39744677249886       -0.28795448618455
C            8.44014440534346       -1.22417181497795       -0.12310271669185
C            4.39464737992808       -0.90194059170732        0.31242895259866
C            3.02741476467765       -0.92902550186739        0.44882268003062
H           -1.92115158802690       -2.10414185226356        0.16375957279734
H           -4.37545434458694       -2.18627665338118        0.16034325573770
H           -8.64312183184042       -2.14033154604899       -1.16182315575858
H          -11.08671831140963       -2.26309059319723       -1.40306217421995
H          -12.33207241737534       -2.64508463252308        1.00046674386048
H          -13.44414005999506       -4.83768754591984        0.92784917550857
H          -15.29269099974457       -5.22453405865361       -0.64697999604789
H          -16.02208083200684       -3.42096091326051       -2.15118921169481
H          -14.89520437135526       -1.23520836384199       -2.08331125814513
H          -12.18806857164186        1.67182856159205       -1.85960030535844
H          -13.51530922169023        3.72214566910260       -2.14549461483453
H          -15.74662554464075        3.89165258239756       -1.12667832620309
H          -16.64365178481361        2.01423088371556        0.18388633331776
H          -15.30315695088542       -0.02680734101508        0.48052833196090
H          -11.48354144127584        1.39278281679088        0.72941991221719
H           -9.03692055028765        1.52947869905044        0.95103949287254
H            2.26431066360340        1.92326045524049       -1.16981855009357
H            4.71018134684749        1.96517998915101       -1.42293555644891
H            5.97974210176002        2.32806682703481        0.95693150396802
H            7.17721446027173        4.47396262578058        0.86566128029167
H            9.04162870683992        4.77334399833314       -0.70933925272427
H            9.70141607384588        2.92843102112271       -2.19583921866480
H            8.48912662229413        0.78990954749582       -2.10987116725838
H            5.66642441889191       -2.00317376007449       -1.86423366781349
H            6.91276200837307       -4.10363432294111       -2.14953246056820
H            9.14290404232462       -4.35348449017092       -1.14477715955743
H           10.11945087035324       -2.50592824097065        0.15122929645201
H            8.85939108922197       -0.41431392971650        0.44791326861016
H            4.99792022942302       -1.68613022662962        0.73474688983487
H            2.54965671385177       -1.74214946675220        0.96794363304657
