104
 energy: -19.028421511238 gnorm: 0.000646817557 xtb: 6.5.0 (97a52f5)
C            0.65291656168058        1.07071036159758        0.79127288510072
C            1.97472878287615        0.37521936670683        0.50965179618450
C            2.93851003098900        1.30586734560145       -0.20547356323726
Si           2.69251332453145       -0.36510232312651        2.11900010226307
C            2.38015333420181        0.74635257610902        3.48077898169603
C            2.21940696825223        1.51362667832277        4.41094728907757
C            2.05048409861626        2.41198532202179        5.47518534791276
C            2.84865900627289        3.58285641793163        5.55183449172989
C            3.80112867691900        3.88028200422524        4.57312973184984
C            4.59112978113635        5.02397531014085        4.64111518884338
C            5.56169606282936        5.33037302138868        3.64944690987904
C            6.31917001463334        6.45424002663817        3.74495581385366
C            6.15705143036076        7.33863628737375        4.82887733382712
C            5.24051289941687        7.08403687596148        5.79905840665008
C            4.42689770294340        5.92052033660030        5.74056500516792
C            3.47971054374144        5.63038562981651        6.71864517419146
C            2.68186318527952        4.48526483949000        6.65379253172577
C            1.71354994415401        4.19967990093828        7.65001608955530
C            1.52812293888035        5.05266345746163        8.74909805388726
C            1.30941784041705        5.74037421801582        9.72853844524550
Si           0.82269684531164        6.59865591028760       11.21814763537946
C           -1.08641322556593        6.63031627492170       11.22262763171738
C           -1.71707504332260        7.08189175893734       12.52724727793690
C           -1.60356992143988        7.41596525915020       10.03086114953022
C            1.51326361639299        5.55913907489062       12.65932284507559
C            1.57080855856328        6.30030794517394       13.98296116800861
C            0.77145735629204        4.23812733098882       12.76108396133239
C            1.62261619827131        8.33251971575741       11.23104773488565
C            1.77827419245814        8.86810139585111        9.81813483977799
C            0.91429503571865        9.32049143422863       12.13972990068187
C            0.91512749068335        3.04653735544522        7.56090820071658
N           -0.00153467803770        2.82722265165673        8.52724426916000
C           -0.72569464013190        1.72764055602526        8.39523654424652
C           -0.54892001350098        0.81696333188322        7.31327482191163
C           -1.36904037491556       -0.35206898518774        7.26040291422194
C           -2.30634620036802       -0.61416359302429        8.19664377494326
C           -2.52198979470929        0.27589570271821        9.29212404950803
C           -3.49425837648296        0.02467269220917       10.27318917744898
C           -3.68080219209788        0.89711396014992       11.31305348324193
C           -2.90496443187852        2.04836048147263       11.41021648347017
C           -1.95015174300756        2.31451431825045       10.46558907715817
C           -1.73651188964875        1.44188721748650        9.39188455878380
N            0.34553587434048        1.01376707479783        6.35094139950071
C            1.08647889610135        2.13632027508857        6.46173865679447
C            1.87354868489400       -2.05754028917492        2.46586047119034
C            1.95954664595316       -2.38713999464119        3.94705740139864
C            0.44201225977832       -2.15247789717380        1.96796443043319
C            4.57850544420960       -0.60502322306013        1.91675388050966
C            5.31224890646409        0.69440113961846        2.20644672785636
C            5.13512314454577       -1.74264718060018        2.75497603495558
H            0.17081445138833        1.40146365697168       -0.13057184310045
H            0.81121857922750        1.95248085179237        1.41383502812006
H           -0.04640097273046        0.42377793019685        1.32066826583855
H            1.80680985302863       -0.51655985336109       -0.11063420635716
H            3.14787903749663        2.18423376211903        0.40609332716257
H            2.51944710546674        1.66104248340993       -1.14880810737097
H            3.88761008172524        0.81787786690123       -0.43064474343967
H            3.92668445245838        3.20980367043062        3.74301508157216
H            5.68770266416534        4.65637643512471        2.81957028293600
H            7.05222706335479        6.67513893086926        2.98620879773236
H            6.76766326931358        8.22512334346317        4.88506013522538
H            5.11916337856986        7.76214173633774        6.62626431062774
H            3.35912718869243        6.30690208162393        7.54473117190269
H           -1.30682739119679        5.56369728297993       11.06961797772777
H           -1.48252158181242        8.12481730446872       12.73701863495911
H           -1.37138718855984        6.48738189542025       13.37285689344006
H           -2.80478197623297        6.99705232611179       12.48938739870291
H           -1.41117093689214        8.48173765146997       10.15565958895874
H           -2.68109706059857        7.29158566428887        9.90673234951069
H           -1.12018107113503        7.09960677577901        9.10459221997446
H            2.53967398704620        5.37069770725545       12.30979884081631
H            0.57255961382626        6.56696635930463       14.32812492571325
H            2.15081338794172        7.22100711073232       13.90486042518079
H            2.02998083347714        5.68668305391421       14.76024360500431
H           -0.25927225966138        4.39430566687092       13.08051085179167
H            1.24118466107803        3.56963450307264       13.48511677285022
H            0.74296883750314        3.72349836323821       11.79898537360577
H            2.61773734791302        8.10699020005468       11.64239773222621
H            0.80420391030029        9.05592557083387        9.36574368301708
H            2.30517847554819        8.15944902333939        9.17687394622248
H            2.33322046431265        9.80806724538024        9.80575722029608
H           -0.05593359234928        9.59814142331958       11.72787761395861
H            1.49086006686695       10.24051961643497       12.25306462264144
H            0.74659571444848        8.90788443198844       13.13521019130016
H           -1.21787257289467       -1.03145871257597        6.43984892625285
H           -2.90852641752803       -1.50374867353598        8.12870115480871
H           -4.09465107045043       -0.86574290666908       10.19757970061344
H           -4.43067258281095        0.69291715501142       12.05995263714038
H           -3.05677622955842        2.73102727461622       12.23044942353583
H           -1.34634320657540        3.20193675749811       10.53270089480723
H            2.50150033829383       -2.75046889353990        1.88821890685884
H            1.34857095681064       -1.69381868968743        4.52671167991036
H            2.97912545756682       -2.31209464271677        4.32527126434067
H            1.59820927007933       -3.39612198863092        4.15445410943983
H           -0.19967064234954       -1.45788654228753        2.51097988599364
H            0.03546598211773       -3.15405542642362        2.12042517630692
H            0.36288899316032       -1.92409124204099        0.90440327475779
H            4.67320643189684       -0.86177914677991        0.85216207100311
H            5.22196379863583        0.95567493970605        3.26172226845559
H            4.91107222275368        1.52901886917318        1.63162050304945
H            6.37681761783088        0.61233738164083        1.97927892498157
H            5.02840659837162       -1.52319238869327        3.81783080918668
H            6.19878302061528       -1.89338094067965        2.56107684339047
H            4.62749188806399       -2.68666360374071        2.55353665823712
