103
 energy: -18.700862495908 gnorm: 0.000623681594 xtb: 6.5.0 (97a52f5)
C            1.87435117501245        0.80652734267556       -0.80558991507431
C            3.19991345339803        0.80060147169465       -0.06426649779084
C            3.37007658408031        2.06624066284847        0.75930277104061
Si           3.45214081882708       -0.74618056706753        1.03099909687282
C            2.79044593975839       -0.47499784293567        2.66751426040951
C            2.35955142332441       -0.45693646028871        3.80485667158876
C            1.86195143524535       -0.52365422495260        5.11704556617005
C            1.48146058856247       -1.78209990575902        5.65562460455882
C            1.59782782527024       -2.95789672644208        4.90932236041223
C            1.21898394544243       -4.19397740522188        5.42278130011598
C            1.33120110126098       -5.39201779096641        4.66625097142087
C            0.95369916441942       -6.58409766727987        5.19662407294043
C            0.44207435064572       -6.65682352332344        6.50733745349252
C            0.31734022179141       -5.53637097806518        7.26492036382147
C            0.70045995239525       -4.26724223903729        6.75126222106488
C            0.58847119645431       -3.10112746928785        7.50182319692107
C            0.96606241565466       -1.85631636173498        6.98914986498271
C            0.84737917584539       -0.67118813952754        7.75923547113880
C            0.34842078807912       -0.71641936933333        9.07075994136762
C           -0.08423611106399       -0.69621930131049       10.20742078888667
Si          -0.72106505544759       -0.46851554703534       11.86083784997768
C           -2.17355957985163        0.76084469882306       11.70842873023457
C           -3.01542724606151        0.91384759501425       12.96198589208515
C           -1.67617758910494        2.09508693598718       11.18100943146591
C           -1.29973839012704       -2.18720847092498       12.44733002001597
C           -1.47363081427430       -2.29628528140863       13.95148336682330
C           -2.53953141563198       -2.61697051573679       11.68353058304112
C            0.69520083963801        0.15835387758512       12.97847660219040
C            1.67364790613878        1.00967822691986       12.18735319951631
C            0.21390526403206        0.86364858447600       14.23327233526809
C            1.22708742710068        0.57237041809389        7.22643627577063
N            1.08587122130578        1.67157267108218        8.01397131571991
C            1.47015136929601        2.77377224120268        7.42359344147420
C            1.98035762066523        2.84688600966520        6.10469045311012
N            2.13066357788104        1.82852343245113        5.31202556489243
C            1.74540683518632        0.64806919290708        5.87953720719204
C            2.29801638046813        4.28692005597800        5.79811243683035
C            1.92697607709835        5.03488789839788        7.04871811981121
C            1.99737335218231        6.37946313381673        7.35269668862862
C            1.58149150892237        6.80587228724615        8.60259846088632
C            1.10232725332500        5.90118065648604        9.53869889335530
C            1.03034733013810        4.55518264672788        9.24349032573022
C            1.44432110799449        4.12379293755751        7.99126103001715
C            2.56803576594547       -2.24065331570798        0.23050917790103
C            3.20689289275885       -3.57519251570764        0.57302231398570
C            1.09022684617893       -2.23735362334435        0.58633702161508
C            5.32024679456959       -1.12579866455185        1.17099667104417
C            6.19023439363526        0.11849760065960        1.13664972063915
C            5.59998503396346       -1.95241440296047        2.41585524411779
H            1.79681691357223        1.66806522684401       -1.47149366811342
H            1.04258982513294        0.86587667637470       -0.10282289220721
H            1.74033640872558       -0.09006053830051       -1.41200171816208
H            4.01891176551971        0.71255894552164       -0.79214445318600
H            2.56152445841777        2.15795380970143        1.48552112704009
H            3.34942473504636        2.95862663827267        0.13081942072631
H            4.30699647813476        2.07041782802990        1.31627112448542
H            1.99207466693249       -2.90829826551137        3.91122562182022
H            1.72126031049018       -5.33981240156874        3.66427432160204
H            1.04463840888795       -7.48577869356921        4.61305114819188
H            0.14824138145857       -7.61314889360381        6.90853899353552
H           -0.07414090599234       -5.59505387859940        8.26601108223966
H            0.19997576080062       -3.16034326499328        8.50201744995704
H           -2.77577574389583        0.27008795177471       10.92913189663349
H           -2.43722708517089        1.35639950117375       13.77206123034152
H           -3.39860113209217       -0.04414067082250       13.31343840772927
H           -3.87282956504955        1.56568674747004       12.78440989962339
H           -1.09149680963950        2.61832454065452       11.93783133903719
H           -2.50364760837564        2.74903084923460       10.89909848103202
H           -1.03876883223318        1.96295782533734       10.30484692608164
H           -0.44924934198078       -2.81345078226628       12.13799652057110
H           -2.25893533825050       -1.62916103939638       14.30539451942338
H           -0.55648846953632       -2.03903002348745       14.48341074276931
H           -1.75159437038234       -3.31019449394718       14.24515701084042
H           -3.39956116328418       -2.00864552727304       11.96497284954733
H           -2.79445340385286       -3.65864988579337       11.88787055824863
H           -2.40054678720130       -2.50996988646887       10.60593730695872
H            1.18323800064342       -0.78771059620682       13.25614145515063
H            1.20191282915466        1.93498902546717       11.85624372557326
H            2.02989636518728        0.48848613578364       11.29716442198712
H            2.54393042710197        1.28116183534614       12.78779740060690
H           -0.22581196164652        1.83058573626732       13.98883573064816
H            1.03749764141789        1.05086261240852       14.92490533372897
H           -0.53984247357417        0.28023752008054       14.76322738892571
H            1.71699876777902        4.63979465233952        4.93972485423815
H            3.36072852221780        4.41057196617734        5.56503119846912
H            2.37071803439818        7.07518985005683        6.62139377691092
H            1.62960803041328        7.85372589569413        8.85031333313115
H            0.78219194022803        6.25204893947683       10.50628023915380
H            0.66275271686022        3.84172137010524        9.95947382191381
H            2.69652567852851       -2.04530916450178       -0.84354057263472
H            3.12527393392567       -3.77656823314696        1.64154745393856
H            4.26345464821383       -3.60443712585089        0.30386402901506
H            2.71205925962557       -4.39643932490847        0.05114341296764
H            0.95346744163867       -2.42467053255634        1.65207243209071
H            0.54689583255368       -3.01388841291742        0.04462568881142
H            0.61672910187919       -1.28120922237002        0.36405054007282
H            5.51173571664615       -1.72515486625448        0.26971770844894
H            5.99275650006013        0.74801010523721        2.00497454648846
H            6.01556547730583        0.71567105473492        0.24085401954204
H            7.25078429150472       -0.13926336667083        1.15847828282171
H            5.40412581102384       -1.36590202091051        3.31465505226353
H            6.64185726156102       -2.27579768042834        2.45558752182763
H            4.97188349809952       -2.84156671537459        2.46848901843169
