112
 energy: -20.892344775541 gnorm: 0.000543503899 xtb: 6.5.0 (97a52f5)
C            0.85955625280705        0.00716850129781       -0.71963760229520
C            2.14992606986317       -0.76476416794531       -0.50606102300402
C            2.22112164034084       -1.32612825363530        0.90487709871352
Si           2.42056595073281       -2.15412381864979       -1.79110442966020
C            1.65372561735982       -3.65588272592692       -1.20682601910525
C            1.19239985218344       -4.69812478781619       -0.78325173940939
C            0.69364732061927       -5.91545173427548       -0.29424847617625
C           -0.38900113114003       -5.93749849372670        0.62512446208815
C           -0.99524725056955       -4.75907157046087        1.06619338206023
C           -2.05369398505806       -4.77369263617590        1.96957068459818
C           -2.67330370759973       -3.57859248358900        2.42490758369348
C           -3.70368948158410       -3.62534198740061        3.30857565097525
C           -4.17898116637936       -4.85990681673964        3.79163975546140
C           -3.61588431532419       -6.02618671226530        3.38235206408647
C           -2.53496769705064       -6.02533197748371        2.45973136073013
C           -1.93293297648301       -7.20246685171575        2.02498455195387
C           -0.87049672723170       -7.19327758644677        1.11846702608543
C           -0.25946176105968       -8.39752788800961        0.67782590014441
C           -0.69696286871964       -9.64471843190249        1.15067553071118
C           -1.01320969010748      -10.75122678435315        1.54415685546316
Si          -1.25686311685094      -12.44607677619431        2.05431235267758
C            0.46083047631338      -13.24637150223917        2.30254039656077
C            0.44886979105466      -14.76247021230003        2.23218581353185
C            1.48132339861460      -12.64436277742248        1.35162836908706
C           -2.22869877881990      -12.44449122686555        3.69577782214415
C           -2.07595999413499      -13.73429392292771        4.48204663713865
C           -1.84656946654939      -11.23075827525397        4.52584780669674
C           -2.29507851841296      -13.26520407973859        0.67971151712888
C           -1.52352572895262      -13.29303015268273       -0.62725988845253
C           -2.86226012021608      -14.62314212031934        1.05015368372478
C            0.80576217888724       -8.36169427194590       -0.23166884997127
N            1.36016180798888       -9.53016389299650       -0.63776985373906
C            2.38039154003986       -9.45471749461117       -1.46768391296958
C            2.91821647855512      -10.76130408156648       -1.90342896189450
C            2.02130195981763      -11.81573883643420       -2.07497948438303
C            2.45271827815146      -13.09181821744258       -2.35169183071198
C            3.80466506385051      -13.35498293676205       -2.45122583821373
C            4.71326391043083      -12.33545046442415       -2.28211772995962
C            4.29281308327065      -11.03878301611535       -2.01621041674821
C            5.30772332089489       -9.96693099275293       -1.89133146466777
O            6.23720104522145      -10.04594233284849       -1.10910509763535
C            5.17263027265398       -8.83439906554937       -2.83744929360003
C            6.22888826852723       -8.54729837878308       -3.69224796376131
C            6.13786713373212       -7.53242134925449       -4.61689003664441
C            4.98246475241483       -6.78077537061954       -4.69829612666917
C            3.93277516076259       -7.04332622583799       -3.84950283630757
C            3.99278191433878       -8.07021650888859       -2.90703313685907
C            2.87663571582287       -8.19553525859490       -1.94571909341525
N            2.32589282700023       -7.05268700259101       -1.59054489472217
C            1.28934864167780       -7.11016531520046       -0.71879638125429
C            1.64759438923658       -1.63623978877421       -3.46127313646883
C            2.34450030458010       -2.24502439893510       -4.66528549010123
C            0.16081713210829       -1.95165665634287       -3.47338076618405
C            4.29445660796918       -2.45672712156698       -2.01815490640883
C            5.09627007608795       -2.23027182744392       -0.74878830044857
C            4.54022530495907       -3.84876154251445       -2.57629757503332
H            0.76608984868361        0.82709622251423       -0.00543330169388
H           -0.00381371467664       -0.64349168060025       -0.57846087935117
H            0.79894287808401        0.43491165738098       -1.72086978806459
H            3.00424996269632       -0.09808632344847       -0.68967861376258
H            1.38239407163854       -1.99823728867207        1.09011384191543
H            2.17744790776936       -0.53295558153240        1.65326353428686
H            3.13429465488360       -1.89605038698148        1.07477706319256
H           -0.63506855090207       -3.81525814450451        0.70007141498437
H           -2.31230897660831       -2.63349429700052        2.05742796336441
H           -4.16486075715889       -2.71150153921779        3.64594881213425
H           -4.99675420903735       -4.87452112211581        4.49353396819189
H           -3.98114345579536       -6.96796042022411        3.75422033976023
H           -2.29636128668356       -8.14265941107511        2.39696394738476
H            0.69753826380152      -12.93140143235175        3.32939068234687
H            0.24284757615075      -15.10184241319559        1.21735728545947
H           -0.30813163311825      -15.19447986625752        2.88683498830758
H            1.41484237075484      -15.18037993439952        2.52121537416923
H            1.25343248629579      -12.91530668584643        0.32127125724040
H            2.49012117207079      -13.00015350052330        1.56813138006884
H            1.49117033270561      -11.55471571732456        1.40694917228229
H           -3.26842969761771      -12.34142857427542        3.35266089017191
H           -1.04786641506934      -13.85817123821595        4.82366405100733
H           -2.33357557401572      -14.60938135005134        3.88526673718415
H           -2.71430809588085      -13.73692573359295        5.36739453924141
H           -0.79782413101309      -11.28257668408847        4.82128499750855
H           -2.44413532710253      -11.16461247630377        5.43689107979606
H           -1.98382447191900      -10.30325761279828        3.96751957163028
H           -3.12190283379190      -12.54409162387942        0.59259982478219
H           -0.69778325335906      -14.00247868880336       -0.57718628328456
H           -1.10332903212457      -12.31315686997003       -0.86005555317677
H           -2.16018996025150      -13.59220907158898       -1.46194325518780
H           -2.06678672857115      -15.34852238807909        1.21637999458638
H           -3.49813769763701      -15.01605022519307        0.25487586231929
H           -3.46397506820221      -14.57427412974772        1.95839974220481
H            0.96979968170058      -11.61301099016811       -1.96908701306609
H            1.73750676287302      -13.88787716632883       -2.47944340826855
H            4.14651586078629      -14.35508449807652       -2.66216106443879
H            5.76910017631158      -12.53052889981875       -2.36031632335879
H            7.12449241899818       -9.14083088602598       -3.62334677534930
H            6.96549578602453       -7.32464487448718       -5.27526286552718
H            4.90804868676670       -5.98256525852869       -5.41878328890320
H            3.04260466254919       -6.43960578852599       -3.89149830491860
H            1.80149555745758       -0.54807269548069       -3.46913655168246
H            2.22901615683163       -3.32918759201964       -4.66707518383450
H            3.41119178953803       -2.01855815486534       -4.67809365381250
H            1.91825078243393       -1.87345125812535       -5.59889373612451
H            0.00048231437777       -3.03044362796877       -3.45404594799481
H           -0.32310406446903       -1.56335172370731       -4.37138578694341
H           -0.35396182440093       -1.53340497138129       -2.60862504286934
H            4.57389978480226       -1.69746104958652       -2.76202107151534
H            4.81466330155493       -2.95446355940872        0.01620819836953
H            4.94200188924237       -1.23085781994122       -0.34074631531185
H            6.16595918184979       -2.35039366561399       -0.92945986808549
H            4.23760365693935       -4.60891386207601       -1.85493239397423
H            5.59619668739049       -4.01050168876908       -2.79993735996540
H            3.97448504004966       -4.02891484013038       -3.48973063356816
