120
 energy: -22.286485014435 gnorm: 0.001000002857 xtb: 6.5.0 (97a52f5)
C           -0.89489865409048       -0.16985393788016        2.73296090933559
C            0.30213114486438       -0.91882310766794        2.17061720718500
C            0.96422655278677       -0.12876038408128        1.05539307794185
Si           1.50858396786550       -1.39396917877339        3.57435760093737
C            1.59366666410364       -0.06667763922584        4.76413185815600
C            1.66171063875974        0.82670664482737        5.58646360200172
C            1.73482145471428        1.84837718010811        6.54423683770805
C            2.24456039672974        3.12904836883217        6.18736617128617
C            2.67450518392546        3.40217692648433        4.89038776685102
C            3.16982423183069        4.65580811589183        4.52907052486261
C            3.60529934490601        4.94235053602879        3.21003605525705
C            4.08178539389291        6.17548499129263        2.88896983037311
C            4.15182264852465        7.19018845461465        3.85942632388905
C            3.74463874568355        6.95619758795931        5.13632447257526
C            3.24084943508713        5.68482633735200        5.51361128734023
C            2.81289447377995        5.41290166921281        6.81412180624689
C            2.31401371676787        4.16282351747687        7.17768670514468
C            1.87072524225048        3.89448678198818        8.50348427736848
C            1.92384027122242        4.89352194309939        9.48646562703681
C            1.93723150258921        5.74164692292750       10.35897687130551
Si           1.75073252344646        6.92136633056332       11.67882334487930
C            0.70690261997991        8.23206680408837       10.78338149356183
C            0.22647672846318        9.30755747662263       11.74152983313284
C            1.52706151941592        8.81810027893957        9.64583279327422
C            0.46407095584009        5.96187460761610       12.70297597568908
C            0.38676758546328        6.51048012234353       14.11719547768377
C           -0.90103866278974        5.81730660458894       12.05375947959855
C           -0.67449926672330       -1.95868928771456       14.11621954035838
C            1.36666533597202       -3.39581140025054       14.78694756312493
C           -2.05963899338839       -2.07120541461663       14.76270546117853
C            1.36439893795241        2.63072392236878        8.84846412052475
N            0.95406512045460        2.42944989148969       10.11652974069928
C            0.46981166462142        1.19744631420617       10.39475296197695
C            0.06497495327052        0.90382999269223       11.67745153673782
C           -0.41145302205696       -0.38675769003469       12.07557756918096
C           -0.68490602696080       -1.36176423169642       10.99867534873192
C           -0.18006883291954       -1.05542797156903        9.71960983342586
C            0.39189115252044        0.16378610248226        9.38791202685442
N            0.80776273482757        0.35985062613781        8.12802129654941
C            1.29647099756947        1.58916365424703        7.84961509538003
C           -1.51160002196034       -2.46017847568172       11.20221836352431
C           -1.81085342486398       -3.53315679450571       10.30552005878940
C           -2.76941782621713       -4.50036342601911       10.67826037064915
C           -3.06583362991976       -5.54911946906425        9.83763819176641
C           -2.42754184747166       -5.68106937174363        8.60881339372330
C           -1.48420580521880       -4.74377750257078        8.23843163092912
C           -1.22018462320079       -3.73311750117477        9.08458175238921
C           -0.48717995169290       -0.64070809026686       13.41608317137771
C            0.43202727364756       -2.21018649241551       15.12191972769453
C            0.55061048129183       -1.38741537427047       16.19772354695977
C            1.45835444841448       -1.36775198667110       17.28712572032000
C            2.51322324067016       -2.20941229006202       17.61463547578589
C            2.94906593521181       -3.31407501439902       16.90142106108179
C            2.40732349290543       -3.72513900628332       15.74948543854193
C            0.90026630580381       -2.98782606746510        4.43795040319834
C            1.44198878288587       -3.05377968550433        5.85665672874402
C           -0.60914475195048       -3.15271242845783        4.41996777218950
C            3.24865961902097       -1.69452530767356        2.84143433272359
C            3.98612519881730       -0.37549028114967        2.67618534690823
C            4.07671417533991       -2.68509738842165        3.64142231906748
H           -1.64861560964261        0.01359616029720        1.96492806666018
H           -0.58671707734371        0.79914975949569        3.12819420274967
H           -1.37309995491710       -0.71325512276010        3.54771556913222
H           -0.01395399836536       -1.89720877002242        1.78204679047978
H            1.32048665316137        0.83270738872622        1.42681471462432
H            0.26225644876377        0.07781295535638        0.24537801037142
H            1.81415415887851       -0.66061522524852        0.62606819202743
H            2.62153949710019        2.62905107854710        4.14588817975544
H            3.55214372892563        4.16728099455381        2.46488098101352
H            4.40901179749762        6.38017920718397        1.88257203605939
H            4.53203278582479        8.16073422312586        3.58510933609142
H            3.79906499399492        7.73521947291289        5.87723659990202
H            2.86996521922633        6.19022145799044        7.55344571173583
H           -0.14983408111945        7.68458464824845       10.36845308575090
H            1.07371898526317        9.78248711021877       12.23856448882284
H           -0.42500573083243        8.90308815400628       12.51616343064559
H           -0.32894389320781       10.08759265578356       11.21752176453047
H            2.41626558901486        9.31790146356972       10.03337527274685
H            0.95523808851287        9.55301881788961        9.07589671378277
H            1.86293319036754        8.04425523943386        8.95348178527777
H            0.94674175263625        4.97250794192040       12.73303810890298
H           -0.09266650062420        7.48890120008102       14.13338842874669
H            1.38159482839126        6.62707169239453       14.55190931427562
H           -0.19175320509276        5.85359626913264       14.76965919478071
H           -1.42787316832393        6.77135489202053       12.03265867887065
H           -1.52995963675965        5.11431802399927       12.60297519597229
H           -0.81896162093244        5.45821031005144       11.02656170079806
H           -0.57207999044411       -2.75477727754289       13.36409268616638
H            1.99021404762076       -2.79569502914557       13.98076188436285
H            1.30422785577627       -4.05532451213549       13.81072150042032
H            0.56160572945871       -4.22485954803007       15.03824363757677
H           -2.18664498553191       -1.31855809431292       15.54014915345578
H           -2.20329955050101       -3.04818562403336       15.22601266939657
H           -2.86051345747522       -1.91854727134338       14.03886458790889
H            0.17925645786716        1.66677446208606       12.42555182428626
H           -0.29896072749786       -1.75740475936647        8.91959645456524
H           -2.05593157067136       -2.48828918819793       12.12677562826610
H           -3.26757881477295       -4.40850103374926       11.62785938534446
H           -3.80115966648020       -6.27881854424635       10.13398345525458
H           -2.66428827173664       -6.50368430344076        7.95463851566945
H           -0.96653613058722       -4.81540529365388        7.29360687795638
H           -0.28506930242581        0.18704878578242       14.07261548789907
H           -0.18567065928899       -0.59881990216489       16.23104453537650
H            1.29263091995465       -0.56279549399514       17.98882644933640
H            3.05074741693719       -1.98331702375230       18.52303710864543
H            3.78199635560143       -3.88225901658658       17.29257933673779
H            1.35485084461858       -3.77773115431536        3.82358844328305
H            0.98468690093353       -2.28019149026030        6.47501846615151
H            2.52022397822966       -2.89760956143157        5.89000208390875
H            1.22850829997497       -4.01683726186359        6.32355542986956
H           -1.08717744593092       -2.37498981576463        5.01639852747743
H           -0.90780953448226       -4.11364528436707        4.84258355831250
H           -1.01398089616736       -3.09950336656465        3.40866434793945
H            3.02268705656961       -2.12600266795052        1.85610581057973
H            4.20569788286528        0.06284261637455        3.65078202962378
H            3.39994596864795        0.35518429869292        2.11909676137708
H            4.93564277084816       -0.51044168422484        2.15488373372775
H            4.29132869424845       -2.29073287220484        4.63515375442533
H            5.03520665067722       -2.88136906808864        3.15729311003586
H            3.56753247764899       -3.64189256423759        3.76234312683095
