98
 energy: -17.633447483840 gnorm: 0.000833722281 xtb: 6.5.0 (97a52f5)
C            0.86667118918956        0.48794061141187        1.01463271867961
C            2.32049705005318        0.12417734566927        0.76161132383630
C            3.11893981665582        1.34254076203873        0.33239617457581
Si           3.05945349984385       -0.76699725268763        2.28287812575902
C            2.43524274759682       -0.01461407864780        3.77647258134225
C            2.09187850662905        0.60242721327651        4.76717834913139
C            1.70196568368642        1.36181026443586        5.87954092871171
C            1.61671150823609        2.77290209746151        5.77373289770128
C            1.90885115737552        3.43119367387070        4.57583614372438
C            1.83148149076886        4.81616607834340        4.46121192476528
C            2.12729937745570        5.48953677262413        3.24592766817583
C            2.04460982687152        6.84358106236031        3.16596022027637
C            1.66378902857590        7.60603544753079        4.28673067941990
C            1.37136723935724        7.00194902035025        5.46845842809388
C            1.44395770407258        5.58907565500693        5.59791622213925
C            1.15084323412258        4.93945858113129        6.79418359529222
C            1.22563658037534        3.54899392116719        6.91550848019167
C            0.92762159256724        2.89517603958843        8.13737833945519
C            0.54103871160069        3.63509857918389        9.26404241685208
C            0.20683678904243        4.25067061276701       10.25893748894058
Si          -0.23996176399148        5.03727979032803       11.79969765193027
C            1.10787387008621        6.31156904545179       12.25689419922878
C            1.15671585850071        6.65014527596473       13.73547987080114
C            2.46303606569214        5.87255395999245       11.72975794712222
C           -1.91734807444272        5.91291882832186       11.56377421824329
C           -2.17518796008350        6.99520148266678       12.59669909796179
C           -2.03028377668726        6.44783156981987       10.14658311453418
C           -0.42291233592078        3.61800525440595       13.06124955464965
C            0.90427880271091        2.91188899033265       13.27054816613861
C           -1.07971667197245        4.02067650067166       14.36825965531658
C            1.01836860269156        1.49242483269900        8.24366417829305
N            0.73592847047585        0.92175440978042        9.42655618815652
C            0.84355074222735       -0.41084277747732        9.46690983515894
C            0.56866694598122       -1.08755038114896       10.67812324279224
C            0.66287885465931       -2.44317633926986       10.77119822961550
C            1.03775965292508       -3.20065299226225        9.65669671179432
C            1.31229595726893       -2.58756402719761        8.47167301076767
C            1.22826459988010       -1.18254317740350        8.33103647867293
N            1.51191411284857       -0.62651226738313        7.14774711776387
C            1.41075220571798        0.71228985894510        7.09587018729713
C            2.59178869449615       -2.61991135730347        2.23192017962227
C            2.64244158121459       -3.21373500456230        3.62996530703781
C            1.24987871559288       -2.88684765814763        1.57331646405195
C            4.96269192501788       -0.59162327242200        2.25315332084280
C            5.37936718553372        0.74544877687027        2.84477774559401
C            5.68224975421213       -1.73881455965161        2.94043840941031
H            0.39645250313968        0.90078361617908        0.12011898034033
H            0.79352128526820        1.24046950241751        1.80098128843078
H            0.27811690889150       -0.37177690109334        1.33467888284545
H            2.38575668695565       -0.64434220246214       -0.02150789263526
H            3.09737970361903        2.10774855306215        1.10888686041089
H            2.70361316209196        1.78944206828257       -0.57271178355252
H            4.16184562855140        1.09742543474139        0.12848664298492
H            2.20281541532379        2.85412505698331        3.71837545777397
H            2.41848727605611        4.90919295918142        2.38728782809379
H            2.27165317529307        7.34266232608058        2.23795752637275
H            1.60465344985819        8.67895510369063        4.20192424699761
H            1.08083636319622        7.58792257622165        6.32348375487352
H            0.86060364289399        5.52488269738457        7.64732699578999
H            0.77181737887959        7.19392845118958       11.69287198810584
H            1.50913255560879        5.79860244415543       14.31696462178645
H            0.17685280295539        6.93262446586258       14.12075915622571
H            1.84085539181323        7.47804043462763       13.93055007617629
H            2.79950604266392        4.96687296949449       12.23473318088234
H            3.22221117400938        6.64019114322283       11.89093991309291
H            2.42672512948978        5.65673623854021       10.66048768305652
H           -2.63350547435700        5.09022346093831       11.70349605286323
H           -1.46935399085388        7.81779401642140       12.47807147967006
H           -2.07597211168844        6.61960136690033       13.61521024949278
H           -3.17883195346320        7.41148775740504       12.49321630545482
H           -1.28288112772075        7.22202741120016        9.96798814907135
H           -3.01212149115357        6.88752147492116        9.96193972095983
H           -1.87080868521528        5.66173840549551        9.40639875726207
H           -1.10218080470945        2.94834736818827       12.51211577830517
H            1.60066388350841        3.54616079324077       13.81903812981836
H            1.37197941674483        2.65417936678188       12.31872868463740
H            0.78137208434830        1.99118141694929       13.84372658428796
H           -0.46692759823697        4.74025604339097       14.90998275174415
H           -1.22048772894518        3.15810934004797       15.02195565585523
H           -2.05893374704843        4.47218223435075       14.20490896997263
H            0.28112097400656       -0.50095943820681       11.53310271489672
H            0.44843221221201       -2.93682444224325       11.70502527695742
H            1.10875730361793       -4.27295206904223        9.73975824686168
H            1.60102454460171       -3.16742761101837        7.61254934568530
H            3.38937839729929       -3.05075973501455        1.61041497342212
H            1.86021217258394       -2.78164307718651        4.25542740744265
H            3.59413509945903       -3.01852465712807        4.12400878756445
H            2.48971368102966       -4.29448088613690        3.61160009403689
H            0.44170855846161       -2.44490536404731        2.15684622267492
H            1.04922551562150       -3.95760202559913        1.50275859277140
H            1.20092161988498       -2.47630337426742        0.56408943570206
H            5.18983243650052       -0.61528214016874        1.17802905520937
H            5.14554077209653        0.78001136577221        3.90977156317629
H            4.86259732665585        1.58181077488364        2.37438650934797
H            6.45275921055825        0.91304499847963        2.73861144775151
H            5.44721821110755       -1.75549012429156        4.00515894641146
H            6.76537820249655       -1.63772896220940        2.84978399189197
H            5.40624266491240       -2.70626779567580        2.51934992085050
