82
 energy: -15.241192961208 gnorm: 0.000535119635 xtb: 6.5.0 (97a52f5)
C            1.86425320828628       -2.00065608092411       -0.11567464365252
C            2.03314711969325       -0.49373930346793       -0.21632015163289
C            2.76837862335835        0.09196906994980        0.97541812184922
Si           2.84001001576905        0.02553276673279       -1.86593112310742
C            2.31362084983603       -1.09931774649226       -3.14955064874526
C            1.98099512947486       -1.97245963251785       -3.92982209966323
C            1.60871954784252       -3.02158867377881       -4.78493848631383
C            0.81088103135472       -2.76886935441692       -5.92575019273254
C            0.37989440628737       -1.47276230689543       -6.23706881121549
C           -0.40437440110750       -1.20537267603465       -7.35357885068987
C           -0.83916639667699        0.10990777573575       -7.67396129222671
C           -1.60170516148959        0.33969515455355       -8.77461728018875
C           -1.97877115191019       -0.72161486216224       -9.62122402535082
C           -1.58649810846028       -1.99421783356749       -9.35259920023888
C           -0.78668386531287       -2.28206958262328       -8.21285829462818
C           -0.36661600922166       -3.57312171552619       -7.91290268967440
C            0.42550229352858       -3.85451909929650       -6.79204086439644
C            0.84497557338210       -5.17550100839225       -6.50459299224506
C            0.46706313995998       -6.23503095022091       -7.34536647162208
C            0.14046040812231       -7.16219052856897       -8.06382198180456
Si          -0.32884394244102       -8.54041785394744       -9.09981155124940
C           -1.42089950775242       -7.98182127126369      -10.51380381721824
C            1.17446705604867       -9.37660642326048       -9.83784046202902
C           -1.27487885665836       -9.82855534887889       -8.12531710741591
C            1.64731297193368       -5.42691593015294       -5.36611632844204
C            2.08357966320027       -6.72216719867941       -5.05716231930795
C            2.87634388567958       -6.98701540409945       -3.94592220975960
C            3.32449203731527       -8.29971629438178       -3.63371246845541
C            4.09903838188136       -8.52651564886729       -2.54086875880606
C            4.47403281595700       -7.46486025565013       -1.69365602216716
C            4.06829912056447       -6.19473919800262       -1.95396851272966
C            3.25684709422985       -5.91020473862402       -3.08613690834692
C            2.82583331117635       -4.62187243308597       -3.38016414883799
C            2.03109954699691       -4.34159912273282       -4.49946923033965
C            2.32619813036739        1.81378536017227       -2.29895390677109
C            2.23265564869353        1.97977475570953       -3.80681730139136
C            1.04171614275806        2.24248834807514       -1.61147212147141
C            4.73906246698735       -0.02378156103426       -1.70754628364042
C            5.23185903225990       -1.43489928362329       -1.44038528082167
C            5.40088740869562        0.57356582917519       -2.93728558124445
H            1.30875163689227       -2.28014743794641        0.78160848644813
H            2.82994444977988       -2.50265559176218       -0.06884941704783
H            1.32954232867540       -2.40147977318723       -0.97874762299407
H            1.03678851312494       -0.03634478747476       -0.29315698703217
H            3.75381551304595       -0.36191250841175        1.08476002962942
H            2.22459552750687       -0.08306034715668        1.90579671292917
H            2.91350227877617        1.16840933345830        0.86776213895226
H            0.66413610173599       -0.65925505771445       -5.59524683381575
H           -0.55315243482529        0.92324192561612       -7.02924694702270
H           -1.92327601401454        1.34205977429293       -9.00662886195918
H           -2.58475462293313       -0.51749498896097      -10.48904360735187
H           -1.87648841592082       -2.80291040306009      -10.00139910069231
H           -0.65838592930121       -4.37797934900114       -8.56218623612118
H           -0.89367649849782       -7.25422225930683      -11.12470635435928
H           -2.32551291565506       -7.52276427312818      -10.12453877638770
H           -1.69584198262664       -8.82966239246571      -11.13513990833849
H            1.73333335546254       -8.66791300970558      -10.44286934801486
H            0.87117580271682      -10.21143914772735      -10.46358788510855
H            1.81970964843864       -9.74686282237706       -9.04590534791106
H           -2.17117563874755       -9.38647345050162       -7.69886228005089
H           -0.65581447731945      -10.21283307718714       -7.31928808664198
H           -1.56235338649533      -10.65308285721924       -8.77182227229802
H            1.79930779819530       -7.53629285952523       -5.69823169423033
H            3.04043240093007       -9.11281406658395       -4.27962279208492
H            4.43221579981416       -9.52676064634858       -2.31618578402823
H            5.08971723434033       -7.66728173211596       -0.83231336683176
H            4.35776585564458       -5.38568856653191       -1.30541696827234
H            3.11303101186829       -3.81791539476059       -2.72784205237534
H            3.16480088095426        2.40899380728860       -1.90980380014736
H            1.39839623487849        1.39874239604951       -4.20225116311378
H            3.13585873085929        1.63390337948468       -4.31138873122466
H            2.06859408043165        3.02234039854679       -4.08624942883448
H            0.21386639674777        1.59701877169060       -1.90849817779145
H            0.77089957270063        3.26564063683194       -1.87899938066245
H            1.12723122271110        2.19954091577252       -0.52458070767741
H            4.94190782881052        0.61375317778871       -0.83539138222226
H            4.94811022978529       -2.10062141171253       -2.25654182188234
H            4.81704377966047       -1.84414746943767       -0.51922663940236
H            6.31971617611357       -1.46676696307398       -1.35431804228134
H            5.12849132651199        0.00961984224509       -3.83063953171154
H            6.48921525447240        0.55220314510038       -2.85356570818231
H            5.10292668424678        1.61109539990409       -3.09565202308968
