80
 energy: -9.574759919732 gnorm: 0.033716485373 xtb: 6.5.0 (97a52f5)
C            1.18977958394841       -1.58418616560715        0.08531706489363
C            2.58278384548814       -1.48942234863975        0.60868609436747
C            3.02938011636182       -0.08614180256435        0.81158409521992
Si           3.77518023590512       -2.40404276280613       -0.53152599704750
C            3.29344158749248       -4.10518582181167       -0.38482622029819
C            2.75900140086678       -5.14645734016266       -0.05578654135199
C            2.03823580679522       -6.28203963876993        0.14048744527825
C            0.67554561429245       -6.45103413491085        0.15568770228097
C           -0.16371263446400       -5.37124631788972        0.08677657565650
C           -1.51996161642580       -5.49328300733834        0.05913604526282
C           -2.38866926946078       -4.40993269388771       -0.02205784432408
C           -3.67502573093854       -4.59272892302797       -0.09075603128438
C           -4.21654480654478       -5.82715987871612       -0.07937202145035
C           -3.47886224199506       -6.89601594573709        0.00239043447342
C           -2.09509023853186       -6.80725762570571        0.07679697613880
C           -1.27017232971768       -7.88724580894188        0.14050812466902
C            0.09004608229616       -7.77758784092611        0.19407992470807
C            0.88422353350485       -8.89585627060016        0.24609546183813
C            0.57511271781712      -10.20549746597221        0.17746694374768
C            0.28442320607889      -11.39789093642307        0.10326159068262
C           -0.05048167265830      -12.70763047073409       -0.03639667926735
C            0.67954992304651      -13.76836682015062        0.24589905603038
C            0.32628719485106      -15.03359568334257        0.15142801035173
C           -0.83174610361101      -15.50006692957218       -0.24663941471841
C           -1.82898965624243      -14.71035129567673       -0.63221440364689
C           -7.21961980301222       -8.70972446482761       -2.82351351704322
C            0.71503843460282       -5.65558739216943       -3.73758122815464
C            4.38103838700099       -9.02792873287595       -3.46159686239054
C            5.41441207758877       -8.63189656688474       -2.78034753586306
C            6.03579299397277       -7.41781792114882       -2.64504760059421
C            7.17858284975301       -7.34751871929513       -1.83784519366959
C            7.94121239399455       -6.30918711676097       -1.79469476101392
C            7.67840475470644       -5.18235052180235       -2.52478764389072
C            6.53685120739315       -5.10760143854865       -3.27165795265452
C            5.63197823742411       -6.19766358698972       -3.32184292505276
C            4.45712947687648       -6.08075526892767       -3.98066093701496
C            0.93941586670218        4.24823731664600       -0.64641822904759
C            1.38627293844772        0.15214593346504       -4.99588274229071
C            2.54288492813622        0.12867811316445       -4.34415245459919
C            6.40854054213277        0.78921983272559       -1.20923764226598
C            5.36254876783651       -2.31593278117807        0.32980456806527
C            6.38864598749981       -3.13277597593405       -0.16342875169512
H           -0.17860191421706        2.61679550874072        3.95366566359786
H            1.00229919580294       -2.50043400816242       -0.43593068395860
H            0.93689399559686       -0.76103382243164       -0.55062970830888
H            5.60327972074966        4.80937875200450        0.35259536286980
H            2.65147095385340       -2.04715517279122        1.55301926161320
H            2.40934427270132        0.46880608603905        1.48609209223287
H            4.06860639507425        0.00507819553780        1.06351506450854
H           -0.65933449548644       -3.73717865265034       -2.20986994789918
H           -2.64319653598496        0.61507490402631        1.08843116418325
H           -8.64737548055822        0.75300127311300        2.12733669004032
H          -10.90172284448136       -7.46616940239572        2.21824363040968
H           -8.76627132839788      -11.19217080441034        2.66233513954220
H           -4.56435019248884      -11.16098761482135        0.50311816812938
H            4.74106464885093      -12.26930252619189        0.79729067152185
H            3.45581693035848      -20.82857559853668        0.18114770615378
H           -4.02575913853495      -14.65051509814941       -1.71179689122026
H           -7.70225404825147       -9.61242547928220       -2.73030023297750
H           -1.82991924522846       -9.50496263058244       -2.66655553106554
H           -0.71579337529657      -13.23899793333979       -4.66027916259839
H            3.24375567851776      -14.62120256628034       -3.41623307244177
H           11.19457487907307      -14.77863158126675        0.18485723849191
H            8.38311575510637       -4.37655253608142       -2.51655500902022
H            6.28332989815888       -4.20792836514274       -3.80972669755997
H            3.68232083494487       -6.78408177799765       -3.90174537537868
H            5.24950573355833        2.72371319616816       -6.87383582615235
H            4.04981015316873       -6.15245897560182       -6.97730464151972
H            7.71518025444293       -0.68845002143902       -7.83449270081996
H            1.73731259692727        1.47798810915569       -9.48157292940596
H           -3.37812645734633       -3.04496475088307       -4.39619131288538
H           -0.62049497532820        3.16974969335060       -6.25191954751965
H           -2.36410789865570        1.16318525232900       -3.09564208800027
H            7.20248422429659        0.81758586092596        1.47329030736191
H            6.09339358726168       -4.16298178783407       -0.22632242904991
H            7.63255518119032        0.87031832167310        5.45568994412297
H            7.28626825344897       -3.05487505631192        0.42045790406729
H            2.71455607204531       -2.35949032877622       -3.22480530359876
H            7.24355446286393       -1.63378102347833       -2.51584741183206
H            5.06998956997067       -2.33301435466469       -2.90553437545691
