36
 energy: -8.046928073305 gnorm: 0.000473451336 xtb: 6.5.0 (97a52f5)
C           -4.03430336905695        0.00523578296615       -0.00373176273532
C           -2.81288141796974        0.00220832082030        0.00009019360448
C           -1.40097971511930        0.00055063598674        0.00146840586272
C           -0.68760953359190        1.18372626249360       -0.16096381696488
C            0.69034849397388        1.18262499914472       -0.16132335907882
C            1.40205638646098       -0.00154745994874        0.00087330432385
C            2.81395222708666       -0.00399909442842        0.00231110243523
C            4.03538333242397       -0.00635900496884        0.00447624359962
C            5.44808883411871       -0.01113174687974        0.01125168081307
C            6.16228477482807        1.17863870678825        0.11289858409589
C            7.54156082016540        1.17458603602564        0.11904758194914
C            8.22999199790364       -0.01777809711496        0.02396050982221
C            7.53672102024124       -1.20687598849795       -0.07680631872426
C            6.15742569634869       -1.20440707449460       -0.08292181639673
C            0.68868628931357       -1.18469785609934        0.16351432120678
C           -0.68926478439714       -1.18358457236768        0.16394996253810
C           -5.44700323971610        0.01129451380626       -0.01232619073854
C           -6.15537335157469        1.20514602641612        0.08176770874421
C           -7.53465641976231        1.20876868389268        0.07524906178518
C           -8.22891832870000        0.02025371673810       -0.02552805065696
C           -7.54144850891678       -1.17265892719674       -0.12067815198907
C           -6.16219194491910       -1.17783252882794       -0.11455784395618
H           -1.22986939732868        2.10537365791652       -0.28693592804944
H            1.23393927232970        2.10342741202842       -0.28752700321967
H            5.62092216975798        2.10642325482389        0.18735113974239
H            8.08200246514149        2.10373892737569        0.19823647754415
H            9.30785133784705       -0.02025106938626        0.02840103504303
H            8.07356300278584       -2.13857200086783       -0.15042112855678
H            5.61250112057641       -2.12986637045598       -0.16029119441763
H            1.23091377382139       -2.10627697033655        0.29009481264442
H           -1.23288913384841       -2.10426989656012        0.29092555896158
H           -5.60966034858017        2.13003901343519        0.16040977988157
H           -8.07070035758224        2.14088210319850        0.14940572187583
H           -9.30676226726367        0.02361627919105       -0.02966223374392
H           -8.08262929892636       -2.10134672477383       -0.20024144186815
H           -5.62161159788405       -2.10601894983939       -0.18964694538153
