112
 energy: -18.711661413370 gnorm: 0.000475056260 xtb: 6.5.0 (97a52f5)
C            0.75393896134207       -0.52783718887046        0.25390686661727
C            2.18452565046566       -0.13644947703619       -0.07556497893697
C            3.01504476016173        0.00544903409807        1.18799687696551
Si           2.92722830569674       -1.35750433212649       -1.34570544666203
C            2.33082103627714       -3.01087944370966       -1.02933295377434
C            1.94228232573917       -4.14870747890613       -0.84479757558123
C            1.49267977630393       -5.46789460902044       -0.63973659391141
C            2.30258815214006       -6.56042738614458       -1.01243908693449
C            3.58251057018900       -6.37714702290194       -1.59671871713554
C            4.35753548371094       -7.43532745158048       -1.95216015359902
C            3.92232707407338       -8.76753588041735       -1.75573679621410
C            4.77282034733994       -9.98040971056693       -2.16564728357857
C            4.96550463637813      -10.90920651122071       -0.95090266234925
C            4.05181224410456      -10.74535877081489       -3.29065997952286
C            6.16446754029474       -9.55754458962111       -2.67521559211072
C            2.69099030206247       -8.96591585303054       -1.19986514782747
C            1.84585383997484       -7.89402041676647       -0.80817543315903
C            0.58201808762119       -8.13147995870121       -0.23014979417918
C            0.14095182624859       -9.45257036063517       -0.02036333409884
C           -0.21496645057620      -10.60144465963586        0.16145104342108
Si          -0.69008133510889      -12.30321380445741        0.42452088962552
C           -2.03349541465562      -12.70873081781545       -0.86995146004197
C           -2.39302519424416      -14.17994144340862       -0.97306347158234
C           -3.25423575913381      -11.83148757687927       -0.65572086678540
C            0.89430056397016      -13.32590297271222        0.14398546749960
C            0.84160473676297      -14.71973141160288        0.74325540896831
C            1.26409038382119      -13.33738610319276       -1.32850821936260
C           -1.27470970702481      -12.49966199752054        2.23232443011591
C           -1.93163355000153      -11.22415603299030        2.73186238209044
C           -2.15165947719539      -13.71764846879299        2.45807394003023
C           -0.22905207422176       -7.03938905392925        0.13991325269301
C           -1.50968013211114       -7.22426617633522        0.72169764379788
C           -2.28654467248715       -6.16712763372930        1.07551101062715
C           -1.85265466478131       -4.83467693028516        0.87867191708169
C           -2.70704114589204       -3.62392401484950        1.28675980572797
C           -1.99576184029119       -2.86391234013599        2.42121079305907
C           -2.89135621722373       -2.69070793959247        0.07417623665126
C           -4.10267775694387       -4.04932632109272        1.78325477454940
C           -0.62023122527625       -4.63492733963907        0.32519003794808
C            0.22737947556411       -5.70558214452778       -0.06430974140088
C            2.41174067446959       -0.82093040116283       -3.10648256244097
C            2.48717477662975       -2.00080095576247       -4.06213366927496
C            1.04308505337890       -0.16439003047580       -3.15776228278940
C            4.83384446040984       -1.33181465408770       -1.20950635814686
C            5.29417504572613       -2.24036119933887       -0.08093166830116
C            5.53675044877474       -1.67977083819705       -2.51023045788093
H            0.26684757437321        0.22046383835960        0.88246133464715
H            0.73753749213996       -1.47341619604631        0.79715949397230
H            0.14752235495945       -0.65873332559018       -0.64262449646144
H            2.19867342760639        0.81576216669622       -0.62476566964991
H            3.03872002836871       -0.93571795421657        1.73889475051898
H            2.59407070607341        0.75985194274648        1.85584807309147
H            4.04408972307149        0.29553248991182        0.97119071238316
H            3.93591986168379       -5.37331978506790       -1.75774694364744
H            5.32143051472991       -7.25243099625064       -2.39306221952358
H            4.01366602543931      -11.29696754270148       -0.58992628955470
H            5.44366874925733      -10.37530750413150       -0.12974588303308
H            5.59290556948638      -11.76245443666349       -1.20863873554371
H            3.07394739378054      -11.09702478706201       -2.96430505902839
H            4.63083461950388      -11.61309238619499       -3.60661754747530
H            3.90295473588894      -10.10392162167087       -4.15922736950028
H            6.70933380285697       -9.00256830165037       -1.91158318678655
H            6.08521196081797       -8.93518980589264       -3.56639902835378
H            6.76146279128296      -10.43096736617433       -2.93802437904327
H            2.33546042791364       -9.96896270295459       -1.05262724595229
H           -1.52564928046386      -12.39709677616424       -1.79529537938936
H           -2.86323072193483      -14.53454785734436       -0.05644527050968
H           -1.51601665881956      -14.80092356372805       -1.15685992055688
H           -3.09833774051023      -14.35828127207358       -1.78723380431817
H           -3.78643655311324      -12.12193434774379        0.25056855198506
H           -3.95729892334351      -11.91369760559112       -1.48726352202250
H           -2.97754280342804      -10.78024274664468       -0.55233525728697
H            1.63166756012853      -12.72432420259242        0.69722657764934
H            0.06605752493104      -15.32144551122054        0.26988106284724
H            0.63070357124463      -14.69139967935252        1.81353619367608
H            1.78894305528389      -15.24529463841800        0.60755889171565
H            0.55682347898706      -13.93693852689192       -1.90269441645676
H            2.25792495960153      -13.76036049890728       -1.48926190411884
H            1.25454032110125      -12.32975746243965       -1.74835205163864
H           -0.31550355737608      -12.63884015900092        2.75324163027666
H           -2.85663429147115      -11.02636279634962        2.18900767017218
H           -1.28141447977935      -10.35778767274396        2.59601673850834
H           -2.18099856876480      -11.29221041267463        3.79264370048644
H           -3.12926346284643      -13.58126838639305        1.99508163988453
H           -2.32136555053626      -13.89435757671806        3.52214575366922
H           -1.70788792063611      -14.62099153608957        2.03728032762802
H           -1.86284446774742       -8.22848269333794        0.88072794148105
H           -3.25096316056601       -6.35105045060649        1.51479198019099
H           -1.01511617588795       -2.51092486201730        2.10522816429596
H           -1.85416819351610       -3.50932642444930        3.28809894921700
H           -2.57762245174785       -1.99772122204000        2.73623806466811
H           -1.93724127989986       -2.30212704220126       -0.27915735562239
H           -3.52035888864377       -1.83822112102325        0.33053746277921
H           -3.36357815152240       -3.22167429663914       -0.75231385591236
H           -4.03073989566978       -4.67288144058255        2.67421058930019
H           -4.64000845713083       -4.60366289901823        1.01382454343303
H           -4.70298195087242       -3.17699830994744        2.04214464609954
H           -0.26602535899449       -3.63195097799562        0.17652582992665
H            3.17892423098311       -0.07688256510646       -3.36463348286533
H            1.73390606174908       -2.74777235282879       -3.80618714618730
H            3.45753652710858       -2.49642340445624       -4.02607992510208
H            2.30632466028168       -1.69227843973320       -5.09387705939749
H            0.26509962058035       -0.87553521040032       -2.87685531427401
H            0.81093792619630        0.18857191568249       -4.16460598522482
H            0.97368108800275        0.69166493110416       -2.48502612156673
H            5.04087837720802       -0.28205691298714       -0.95707011986989
H            5.08618413089931       -3.28388627427492       -0.32287294330334
H            4.78463606445857       -2.01931742479801        0.85712338081490
H            6.36864499512209       -2.15130212497253        0.09192313676502
H            5.32127381101548       -2.70937740053920       -2.79913697716967
H            6.62060144758998       -1.59236602015184       -2.41058501662567
H            5.22838185275338       -1.02831880343328       -3.32913140008590
