104
 energy: -19.030670365950 gnorm: 0.000537560423 xtb: 6.5.0 (97a52f5)
C            3.20758028993453        1.17816171220534       -1.25231627871747
C            4.47793780108006        1.65375998338458       -0.56941201045932
C            4.42988420056685        3.15079793463791       -0.30963595296152
Si           4.86479847908898        0.71058258947978        1.04741407445726
C            4.03339559444892        1.50821019915529        2.41082755679004
C            3.45507952030387        2.04595863940363        3.33547147323579
C            2.78973753596022        2.66680557140373        4.40598362228427
C            2.98012574708688        4.04100032993791        4.66422434043994
C            3.83604954570384        4.83722220945434        3.86121501041287
C            4.01387302893977        6.16028867167422        4.12034100475715
C            3.34965014619631        6.76722254551960        5.19643086142528
C            2.52060341482202        6.03874492624801        5.99135732427128
C            2.30581684059958        4.65739608759216        5.75532505672054
C            1.44758902752992        3.89101670647160        6.57182018893856
C            0.77872784404665        4.46882784492934        7.66477871261810
C            0.18905251172546        4.90797535502076        8.63348187595913
Si          -0.69038667304980        5.38925498878034       10.11194778578213
C            0.33440357616920        6.75991686937719       10.95700221330108
C           -0.37957680394205        7.47616895364845       12.08885754552181
C            1.68838068411422        6.21994894520942       11.38183174284154
C           -2.38699933703394        6.02876422107106        9.52300849114494
C           -3.44441724284344        6.06580609939202       10.61156939930236
C           -2.23326610150769        7.36212372797212        8.81332183192672
C           -0.92720374380838        3.83372276569617       11.19402344886478
C            0.24683623450613        2.88044876340617       11.04827824471903
C           -1.23416567524286        4.13629893161590       12.64905471077823
C            1.24931032103415        2.52165441633843        6.31136493309944
N            0.41015170615843        1.82855022213564        7.11397545501148
C            0.27412591439710        0.54776536200739        6.82867416935320
C            0.96141673667524       -0.07761234027079        5.74603577468598
C            0.76122270926820       -1.47896490226592        5.51791504734831
C           -0.04957022775444       -2.22646195520717        6.29283291492919
C           -0.76359409354522       -1.64927920826994        7.39250103810778
C           -1.59625094312466       -2.40635187867582        8.19800213955550
C           -2.29345757898818       -1.83259363243541        9.27212895455693
C           -3.14607749973005       -2.59302723341603       10.11160020964879
C           -3.80725066296742       -2.00454451952904       11.14504378681973
C           -3.65787769510139       -0.63097410758832       11.39866028253583
C           -2.84934406281331        0.13225514107282       10.61488918969749
C           -2.14261768342967       -0.44336244234870        9.53047518958312
C           -1.29758885295262        0.31402005777654        8.70749177779263
C           -0.60770650003255       -0.25659553950391        7.65778424246451
N            1.77978878499290        0.58402942228420        4.94281507645495
C            1.93165224889584        1.89866741582848        5.21777557086980
C            4.24669643960157       -1.09226866635326        0.89567226377349
C            5.04884091136593       -2.07729311409225        1.72781424185125
C            2.76714608687376       -1.16999778066045        1.23516358441911
C            6.75234296637231        0.71407838553036        1.35056645745140
C            7.44567038224133        1.95930484040507        0.82641960039143
C            7.04982454683330        0.50411136475182        2.82618154575126
H            3.05193086932038        1.69331885688807       -2.20204308729225
H            2.33730607931242        1.38253226912603       -0.62767564953167
H            3.23003903090630        0.10748473391363       -1.45902307761223
H            5.34198264841871        1.40852904953227       -1.20313115669492
H            3.58206291225027        3.39952006348255        0.33040468697716
H            4.31716286069933        3.71429281210492       -1.23775768962967
H            5.32863394670899        3.50971009876231        0.19177160232646
H            4.34898797861284        4.37575007110583        3.03529569398047
H            4.66814574122214        6.74879080502489        3.49788291738398
H            3.49973625814906        7.81681034787897        5.39050076348036
H            2.01320183006204        6.50853934476686        6.81605381509107
H            0.47394816380310        7.45966253849971       10.11933493979606
H           -0.58206249139013        6.79749380796415       12.91656625212607
H           -1.33152811888802        7.89805822712321       11.76652854505936
H            0.22630309849787        8.29427511827686       12.48285249686411
H            1.58609513999611        5.53760330554471       12.22588937852495
H            2.36000547495766        7.02271371074531       11.69222918244847
H            2.17159261482237        5.67153531338789       10.57101053704211
H           -2.65799634761640        5.25704033627574        8.78659123498744
H           -3.16878736202649        6.76095509340133       11.40397517388999
H           -3.58906821906680        5.08503042203045       11.06680875450899
H           -4.40856436501771        6.39026456282958       10.21577035158841
H           -1.95598714917441        8.14773161932029        9.51658714783534
H           -3.16361838205880        7.66822673401209        8.33106456946428
H           -1.45636210403682        7.31850023619558        8.04756472042320
H           -1.81391075419909        3.39020420456588       10.71808780649556
H            1.14635430227358        3.30227010916694       11.49697424964578
H            0.47155667927406        2.67717150321865       10.00016216432841
H            0.05064927148881        1.92601919308998       11.54028736464357
H           -0.35563974093205        4.53798268861786       13.15405656044069
H           -1.53043288442262        3.23431217087025       13.18810646740841
H           -2.03838568406301        4.86558764032924       12.75276366961669
H            1.28993358561274       -1.92912320615034        4.69592880516088
H           -0.17347326008037       -3.27710272926820        6.09419777950816
H           -1.71142590506511       -3.45661284161062        7.99946727336504
H           -3.26241854184677       -3.64572001939522        9.91878696781737
H           -4.45265127911853       -2.59378637083814       11.77604306972815
H           -4.18980452236525       -0.18229685955209       12.22178846648671
H           -2.73679530138539        1.18416839126749       10.81091074690436
H           -1.18346299213880        1.36515984539509        8.89424853349978
H            4.40147600347006       -1.31122252074330       -0.17029078323198
H            4.93166218168227       -1.86522332283439        2.79103139265143
H            6.11309590176678       -2.04090804128201        1.49212397378723
H            4.71032347401331       -3.10208765304466        1.56364717983996
H            2.17511228367439       -0.46429955771953        0.65256727756192
H            2.60594338558651       -0.93419564467674        2.28793985759632
H            2.36728817155206       -2.17002085709735        1.05712903125951
H            7.08934576233177       -0.15663200066043        0.77060470096457
H            7.10810452491252        2.84301114706441        1.36886638784929
H            7.25094048666274        2.11998162572086       -0.23458606476775
H            8.52762349957414        1.89428398686380        0.95596074544471
H            6.70736585762741        1.36025217229758        3.40926451798700
H            8.12052833300009        0.39043360424918        3.00608054006814
H            6.54846665217662       -0.37810101579366        3.22405349595508
