98
 energy: -17.644381864886 gnorm: 0.000817570338 xtb: 6.5.0 (97a52f5)
C            1.08368274766124        0.31388570532097        0.02042739213958
C            2.46408739770855       -0.31886647885496       -0.00238270358736
C            2.58186252354874       -1.40704036534395        1.05237123534964
Si           2.95279088761686       -1.00019106932903       -1.71998871811556
C            2.35528065447851       -2.67377292416742       -1.88808107864646
C            1.94297280890464       -3.81086459874308       -2.01378181912000
C            1.46738112006078       -5.12384102401155       -2.16706222513211
C            2.30585881083385       -6.22247619388557       -1.88716003554336
C            3.64020597114512       -6.04503301429142       -1.43998975702562
C            4.44070699277081       -7.11154631316090       -1.17380716216461
C            3.95755632021659       -8.41822360648881       -1.33755755119653
C            2.68374938577589       -8.63179643203006       -1.76346645986153
C            1.81520501570836       -7.54840045661215       -2.05245944810066
C            0.49240751706637       -7.75707964252158       -2.49588002120451
C           -0.00134717256862       -9.06252926296827       -2.66198027865561
C           -0.40514317235575      -10.20115580078940       -2.80226497223685
Si          -0.90524898479999      -11.90501857769210       -2.99839868771605
C           -2.51151777620456      -11.90649554557562       -4.03012782947930
C           -2.92601873608716      -13.26842932504255       -4.55641389844732
C           -3.62943276255318      -11.22187889829639       -3.26434050620273
C            0.53481710782269      -12.75120773606295       -3.91743964651959
C            0.52853006423310      -14.26583365397274       -3.81564213996118
C            0.60656111101235      -12.26194149621737       -5.35285562326570
C           -1.10749077467080      -12.68652833180247       -1.26795512713049
C           -1.59721049786917      -11.65781863639063       -0.26328541011268
C           -1.96396591082490      -13.93968325025756       -1.26339862292836
C           -0.34917850042208       -6.66186303252144       -2.77710350914517
N           -1.60596286091289       -6.90608446694087       -3.20492962895937
C           -2.34832068620646       -5.83771690820624       -3.44532496946877
C           -1.86282887081405       -4.50919024458239       -3.26633051712977
C           -2.73863204421158       -3.41273982915382       -3.54086382343921
C           -4.00784442434494       -3.59711728512030       -3.96105394848071
C           -4.53460621931941       -4.91013638783619       -4.15660911576339
C           -5.85076885096364       -5.12116845639659       -4.59622204880362
C           -6.33149930226447       -6.39070414170694       -4.78127574517256
C           -5.51615190400778       -7.49088242998105       -4.53537884340290
C           -4.22849198084770       -7.30991404084518       -4.10518079123630
C           -3.71023062312947       -6.02530046426096       -3.90436376259424
N           -0.62937399917942       -4.24838331853641       -2.85330043374470
C            0.14263401424988       -5.32665121460204       -2.60640712047201
C            2.17212732186453        0.09324673685394       -3.08003164512619
C            2.97388580038949        0.11463340959344       -4.36953787800388
C            0.73540639547004       -0.33084083534299       -3.33802007440416
C            4.85617401770485       -0.97494184248562       -1.89824851858001
C            5.58918995891880       -1.19553986837521       -0.58680030806248
C            5.30298333693209       -1.97955916921002       -2.94785392857947
H            0.86104805578123        0.74269385077368        0.99927065760587
H            0.31594528365388       -0.43285682627622       -0.18592794372238
H            0.98643774999279        1.11128441069805       -0.71730554171719
H            3.22116050060459        0.45879383442820        0.17190145603004
H            1.84002130704762       -2.18851737568371        0.87974879633778
H            2.41428536186777       -1.01137871845689        2.05599421024894
H            3.56167825661430       -1.88474001036717        1.04110365183166
H            4.01446989337617       -5.04437687600510       -1.31100797333694
H            5.45185438789535       -6.95582965303163       -0.83444759345508
H            4.60218048982884       -9.25510914895137       -1.12319002650071
H            2.31771829322880       -9.63629952380973       -1.88681790803808
H           -2.21254439580638      -11.26875449142746       -4.87551300829701
H           -3.17503850245530      -13.94523591284619       -3.73991094262408
H           -2.13570370124655      -13.73563869654959       -5.14392108464812
H           -3.80856769421018      -13.19309297036350       -5.19434980603651
H           -3.97664252761164      -11.84704230961246       -2.44168442158238
H           -4.49003176131873      -11.02121288703669       -3.90542098264787
H           -3.29694508970248      -10.27384661996717       -2.83842841291607
H            1.39819707640721      -12.35865138559132       -3.35919458226735
H           -0.35624653974736      -14.68825773423639       -4.29070287631530
H            0.53796202678933      -14.60011569556301       -2.77727522974669
H            1.40066495238179      -14.69911848932039       -4.30874303265043
H           -0.24059756078153      -12.62957677827341       -5.93220916263489
H            1.51611409712020      -12.60733380306586       -5.84811609093793
H            0.58952276456611      -11.17151962348913       -5.40342767136793
H           -0.06714134900028      -12.95468170037125       -1.03117261515161
H           -2.61135353121827      -11.33603915592732       -0.50130146120849
H           -0.96427004090234      -10.76858053037716       -0.25822932549270
H           -1.61152350790207      -12.06448418337101        0.74972873532001
H           -3.00956784629302      -13.69514497858890       -1.45000988605086
H           -1.92006159623659      -14.44767189376547       -0.29807842067842
H           -1.64852611174571      -14.65036777176742       -2.02805391421308
H           -2.35318642110041       -2.41812436674789       -3.39956331319206
H           -4.64360409909703       -2.75117179309574       -4.15816085552744
H           -6.48049096529595       -4.26917339709845       -4.78768624194941
H           -7.34399228749624       -6.53939165687398       -5.11975327346910
H           -5.90009794478013       -8.48702240553226       -4.68413163333076
H           -3.59084874074872       -8.15528557748543       -3.91677137824708
H            2.19411522279045        1.09376431912191       -2.62543430938756
H            2.99065873888650       -0.87499175149812       -4.82717627207273
H            4.00527001680475        0.42903496453461       -4.20575829280537
H            2.53379995066117        0.79819518340815       -5.09782591122644
H            0.70481854664680       -1.33155630113911       -3.77078933590191
H            0.23768845408192        0.34432307724830       -4.03652204287442
H            0.14541737845002       -0.35890163731375       -2.42228389394787
H            5.04792742773501        0.04857109427034       -2.25043618554327
H            5.38962128702024       -2.19528782669007       -0.19929596095386
H            5.29401434859289       -0.47208079548126        0.17424706927569
H            6.66952622370787       -1.11117608874421       -0.71847621414098
H            5.11212738571013       -2.99818198845059       -2.60731156747407
H            6.37220744728806       -1.89684094694743       -3.15148806907865
H            4.77180806154515       -1.85062773843555       -3.89086220594015
