108
 energy: -19.731627977415 gnorm: 0.000557342246 xtb: 6.5.0 (97a52f5)
C            0.33962098503893       -1.20024236620600       -0.11697903434120
C            1.83195287756612       -1.27509005654608        0.16653787697836
C            2.63488440203819       -1.03139461894603       -1.09823542644821
Si           2.27025323935392       -0.09504976489934        1.60640771823908
C            1.19167886174720        1.32675331145074        1.55480015303500
C            0.57829353767156        2.35640322229991        1.34972835225419
C           -0.05115560855336        3.57557455052054        1.04368586273244
C           -1.28713332653196        3.92389076850987        1.62633049514258
C           -1.94717796159658        3.06459615257841        2.54218184584318
C           -3.14071100555492        3.40979912534271        3.09396190979453
C           -3.74815683327518        4.63111864310670        2.76390661329403
C           -3.14888888018318        5.48205887968369        1.88927602138143
C           -1.90236165822947        5.16214142495849        1.29225995039533
C           -1.26981985009169        6.03698627987494        0.38504653569713
C           -1.85733802682117        7.26207997858590        0.02353914715269
C           -2.29590114702655        8.32813568058203       -0.36360700025098
Si          -2.68389654795746        9.88823543446527       -1.14291719524806
C           -1.60882050045130       11.20943003315466       -0.28065228553858
C           -1.56974161238032       12.55440988079305       -0.98293337766239
C           -2.00027655117810       11.33428762379841        1.18096100830325
C           -2.18633444069083        9.65527543841141       -2.96846116238177
C           -2.77030920820353       10.69436542016307       -3.90839017408226
C           -0.67771928624309        9.53484693576919       -3.09060534758422
C           -4.56207158208137       10.20979585304883       -1.02083372356994
C           -5.12948525062399        9.61920278167590        0.25835711196598
C           -4.93947572937061       11.66983493849135       -1.19172660790538
C           -0.03108500079408        5.69807633889952       -0.19376546780587
N            0.54458826298506        6.58501397963681       -1.04813262830348
C            1.67691092230483        6.17234784700187       -1.53895543039676
C            2.26995744693573        4.92396092575759       -1.23625264449464
N            1.76448246607863        4.05140259609975       -0.41392459334087
C            0.58310077993871        4.44286794894707        0.13273661492398
C            3.58561246127199        4.70567406117947       -1.98315564125151
C            4.47726269113919        5.88474824059611       -1.60625171088888
C            5.73236191303454        5.82682867363332       -1.03049917604198
C            6.40242986206751        7.00105499082502       -0.74707963904927
C            5.82511039723029        8.22512593065024       -1.03460937629311
C            4.57082814128160        8.29054428956214       -1.60979452465821
C            3.89494341377187        7.11979459801661       -1.89754465287075
C            2.50959059572872        6.99053046850361       -2.52522968064423
C            2.67597066704900        6.10669242828177       -3.75744129718890
C            2.31123899696647        6.41354272738151       -5.05466527564651
C            2.52812270111043        5.48712051473630       -6.05598887764033
C            3.10417026088887        4.26297677490943       -5.76631682329727
C            3.47014632678178        3.94913661784935       -4.47172642332109
C            3.25666278715531        4.87122215097987       -3.46457099543163
C            2.04580726433082       -1.02099821381573        3.25654093440969
C            2.31201527226396       -0.08952684912828        4.42675807269312
C            0.67629959610560       -1.66892408205235        3.35470181098966
C            4.06578977840397        0.54956413339153        1.55020389709106
C            5.09436832759195       -0.56427493695902        1.63092739344763
C            4.30416174036824        1.49308975178377        0.38306745408201
H            0.02955040331446       -1.96050847177548       -0.83647225332173
H            0.08062812596204       -0.22673631016932       -0.53621493678270
H           -0.25664406312268       -1.32986025629151        0.78661329275162
H            2.08573512456967       -2.26225217066511        0.57892735670612
H            2.46409794719552       -0.02080056698553       -1.47093314813240
H            2.34379940813863       -1.72294866845068       -1.89111467755611
H            3.70506308880393       -1.15492773067658       -0.93462819112660
H           -1.48626266424466        2.12559450935508        2.79560798520759
H           -3.62737432849073        2.74357254414801        3.78762296021686
H           -4.69666268222481        4.89075901267527        3.20514840932566
H           -3.61935082312007        6.41648906566601        1.63712398364549
H           -0.61526869551209       10.74095081752257       -0.34636342009374
H           -2.55423222536383       13.02061353258848       -0.99364097667982
H           -1.23422502415913       12.46381459193267       -2.01602196997639
H           -0.89123589003076       13.24394528921038       -0.47718851264717
H           -2.97773856657504       11.80625488783274        1.28180796625029
H           -1.28495435032576       11.94433911988338        1.73604526076650
H           -2.05452554998539       10.35690385293986        1.66431458135536
H           -2.64411263569563        8.67824463369240       -3.18588360479812
H           -2.39801389117556       11.69088335898619       -3.67369431652899
H           -3.85921204302507       10.72562349140103       -3.84823840575139
H           -2.50334681094429       10.48394249486811       -4.94568720212139
H           -0.19220720506825       10.48776312334095       -2.87800885286860
H           -0.37939034461840        9.23187012925885       -4.09609703303435
H           -0.28125243354402        8.80050489506412       -2.38701751617756
H           -4.93522997184429        9.63362495431876       -1.88061937722512
H           -4.73607760100770       10.13855126706252        1.13266089341112
H           -4.87119361714933        8.56369348199451        0.36101242399221
H           -6.21752662547777        9.70253972885161        0.28862819827867
H           -4.61978091289971       12.25570931285034       -0.32995817979526
H           -6.02041885638713       11.79315174339551       -1.28183698076475
H           -4.47951861222413       12.10649234806212       -2.07898393262614
H            4.04165725850243        3.73485899820394       -1.75342559990149
H            6.17342883592071        4.87027466364440       -0.80916634015702
H            7.38159799128461        6.96279187203853       -0.29788674856965
H            6.35729527432526        9.13444895761343       -0.80685309704257
H            4.11313237290046        9.23859993209755       -1.83408388099946
H            2.05327636850281        7.96127091196904       -2.75454721851399
H            1.86258974839241        7.36796436805792       -5.26998934382074
H            2.24589191577153        5.72030852812753       -7.06986688360644
H            3.26848493826880        3.54838647006299       -6.55644562542448
H            3.91780417322719        2.99868844679888       -4.23753730468942
H            2.81779711249426       -1.80255346184481        3.22070503259483
H            1.60705890315934        0.74307272200217        4.42111807296959
H            3.31829644155788        0.33047476397281        4.39255337104152
H            2.20185666549473       -0.60772287702993        5.38124497632680
H           -0.11052041488495       -0.91734948938908        3.27577948948920
H            0.54665061900724       -2.18102045921970        4.31005405730457
H            0.51884623907574       -2.40431940906271        2.56431830527823
H            4.09826010150319        1.13671525231571        2.47982363745280
H            5.04714806782216       -1.20780575185187        0.75306833929589
H            4.93609076237776       -1.19612706247368        2.50619747649214
H            6.10864421738546       -0.16489427283548        1.68862262651706
H            3.50085954441098        2.22664950142098        0.29576082400230
H            4.35798334170869        0.95115760922864       -0.56011150559783
H            5.24424487044606        2.03694433224853        0.49399694278193
