97
 energy: -17.317033375795 gnorm: 0.000664985858 xtb: 6.5.0 (97a52f5)
C            1.01744833629317        0.50100662051736       -0.33479278911305
C            2.39794732172191        0.13875726903709        0.18377341899133
C            2.50403421811586        0.39125335161819        1.67850142246675
Si           2.91855361483554       -1.65566882262682       -0.22104975301984
C            2.38925607229512       -2.75757835294845        1.08042869296222
C            2.09226585129254       -3.57010714393530        1.93480320509473
C            1.76502035807241       -4.53950230666381        2.89979131491106
C            2.08674822529355       -5.89535472647072        2.67272450963502
C            2.73062707138508       -6.31664895011282        1.48113761645146
C            3.03753728720856       -7.62459262881797        1.27158606362177
C            2.71969130372924       -8.58967729311450        2.23849888424031
C            2.10249095166916       -8.22696929941088        3.39443080804255
C            1.76571993428253       -6.87318684115223        3.65306743425530
C            1.12720673468269       -6.48437793627363        4.84943865923051
C            0.81349483865657       -7.44123701865655        5.83087171024184
C            0.54977352053786       -8.26423044600493        6.68646120965340
Si           0.17865930473748       -9.45566368073637        7.96493074711752
C           -1.08139119308614       -8.63175678718907        9.13911766282997
C           -1.72018849398161       -9.57096623927486       10.14585875104502
C           -0.46508048366404       -7.41227164740988        9.80072480334361
C           -0.56774146222604      -10.96348448404778        7.06855368411429
C           -0.54142944403140      -12.24174986273605        7.88704736662182
C           -1.95383556562375      -10.63560933477709        6.54282582234975
C            1.80966740117371       -9.95862506063958        8.82178560720159
C            2.79088691556142       -8.79900112505750        8.84494089571681
C            1.61176718249507      -10.56334388675568       10.19975798477426
C            0.79701334901981       -5.13416642718632        5.08032984569087
N            0.17535962117131       -4.81808595959513        6.24734608085819
C           -0.08590554244903       -3.54121223150916        6.35436650231209
C            0.23749217719887       -2.56786178235000        5.37761628854218
N            0.83084956352546       -2.82084801475815        4.25062724040524
C            1.12229405886963       -4.14371174428526        4.08686701837570
C           -0.21869697048007       -1.22246063301842        5.87746524129259
C           -0.83305185698139       -1.50218155358387        7.22083144796838
C           -1.41723495572534       -0.65507498863719        8.14087063539502
C           -1.91292997371924       -1.18611102466844        9.31938965115249
C           -1.82798238114213       -2.54669935204676        9.57579568269251
C           -1.24606633061679       -3.40040166606021        8.66086182118550
C           -0.74567656380292       -2.87220060548496        7.47938564966830
C            2.12526370056665       -2.19280127898169       -1.87499005269184
C            2.93540230156965       -3.23994063364143       -2.61909839228770
C            0.69946879309520       -2.66700700168575       -1.64736455027346
C            4.82160043947009       -1.74273224999287       -0.37994504305548
C            5.54676826901919       -0.75620102986359        0.51850597249169
C            5.30757574388191       -3.16214252193532       -0.13530837045055
H            0.78678137350065        1.55116092276031       -0.14630539661851
H            0.25183960624936       -0.09195172036393        0.16662138717242
H            0.92617095128879        0.33166296850688       -1.40842550414413
H            3.15113968989868        0.73224763170425       -0.35333762721419
H            1.76324133951355       -0.20045520142116        2.21753699812778
H            2.32629196376562        1.44063652030641        1.92088526986698
H            3.48296316828753        0.11776988856216        2.07175716955684
H            2.97523320806523       -5.57979243276896        0.73589929939996
H            3.52686100255742       -7.92469720722091        0.35923009242186
H            2.96548585722682       -9.62390843266910        2.05998008525486
H            1.85878556558690       -8.97115551822447        4.13270395591806
H           -1.84540824361318       -8.30144052951935        8.41940695413625
H           -0.98198927544472       -9.95322661135083       10.84977097212989
H           -2.19037349460777      -10.42708877779225        9.66212210726429
H           -2.48854406075164       -9.06058299724380       10.72960683027060
H            0.28452435751220       -7.70636222917390       10.53553706912347
H           -1.21697768086741       -6.81757383806506       10.32309279732120
H            0.02549119240854       -6.76789883187946        9.06890882407116
H            0.12540101684225      -11.06668753897263        6.21990293544880
H           -1.15413465839707      -12.14751835846597        8.78300239810631
H            0.47075632564383      -12.49755549641759        8.20375187786255
H           -0.93033786304223      -13.08593400887997        7.31468178471073
H           -2.66420478270032      -10.52301723560805        7.36228193254500
H           -2.33079481005658      -11.42495587744549        5.88957100259171
H           -1.95493341370018       -9.70188500301661        5.97710454706019
H            2.18226245169025      -10.73199584813421        8.13370998098084
H            2.42366397679298       -7.99338893398309        9.48119945768629
H            2.94522395776150       -8.38343374361736        7.84755425411935
H            3.76346603457958       -9.10675573390613        9.23362218770099
H            1.29255536704250       -9.80365994041988       10.91321967059889
H            2.53942836410771      -10.99361491281719       10.58193619720651
H            0.85744599758990      -11.35092328985506       10.19350915293078
H           -0.95015776026034       -0.77982645755338        5.19336420759024
H            0.62691015812948       -0.53248195037754        5.96602197021991
H           -1.48029759107539        0.39921299881045        7.93402145330754
H           -2.37053128263168       -0.53419441696068       10.04555140311070
H           -2.22022389484979       -2.94180828563159       10.49875223971699
H           -1.17532957124740       -4.45773724764768        8.84479556371814
H            2.12436288194134       -1.25874415386122       -2.45439019564673
H            2.97847781407985       -4.16791060923407       -2.04790399368032
H            3.95846384197815       -2.91070623640936       -2.80504183249096
H            2.48496914611123       -3.47552403457127       -3.58510901773393
H            0.69286508707573       -3.59216489964805       -1.06912990065297
H            0.18835418177787       -2.86571008175712       -2.59136217337155
H            0.10863616636111       -1.93691241264790       -1.09426682973493
H            4.98666346811179       -1.46303587469005       -1.42991980489705
H            5.36991456040768       -0.99368488411920        1.56805784362252
H            5.22222070147633        0.27056806704988        0.34560633825904
H            6.62569789480923       -0.79206015682088        0.35615572334551
H            5.13785230387839       -3.44993102089776        0.90313568217343
H            6.37697439339316       -3.25777238837036       -0.33221420922643
H            4.78696977180009       -3.88776630478564       -0.76002153365572
