92
 energy: -16.249787264129 gnorm: 0.000406962132 xtb: 6.5.0 (97a52f5)
C            1.18565110922194        0.16144238255672        0.06571229504569
C            2.55535890863245       -0.49430453741093        0.08345302206282
C            2.66078150196731       -1.50702086560863        1.21198532002531
Si           3.03956989154935       -1.30504906451037       -1.57915089708183
C            2.48579485458398       -3.00303509984062       -1.59557428995335
C            2.10428175101969       -4.15798218410961       -1.58216498226916
C            1.66394833597644       -5.49203299954404       -1.56962121891628
C            2.59317244908667       -6.54998801516683       -1.51148785258974
C            3.98985865545523       -6.30987491578169       -1.45279591314259
C            4.88012764131716       -7.33646758234515       -1.40034018665549
C            4.43002876406970       -8.66508938752844       -1.40046054606695
C            3.09905532125577       -8.93942015137210       -1.45240605759469
C            2.13597112113715       -7.89954790986067       -1.51087343522484
C            0.75500504858522       -8.17368138621905       -1.56734818389231
C            0.28907072852127       -9.49885282621855       -1.57857061259119
C           -0.13318739329768      -10.63956432737325       -1.59259240145688
Si          -0.80381007605497      -12.29562475828423       -1.58093609489141
C           -0.97808553471400      -12.79947765493039        0.25212816468454
C           -1.77273203366743      -14.07044564622689        0.49138777224049
C            0.38582900538253      -12.83931242259311        0.91817173365104
C           -2.49943984879805      -12.17080703916646       -2.44329121063194
C           -3.04837795120290      -13.50357598946790       -2.91982817716028
C           -3.48372231771073      -11.41213321188398       -1.57102893863389
C            0.34637802139509      -13.44172923302358       -2.58707848293550
C            1.79082232348362      -12.98175065039550       -2.49077166819077
C            0.19282991011703      -14.91129002098772       -2.24045119411320
C           -0.18484469405794       -7.11918558229639       -1.61356806326279
N           -1.49137167813081       -7.42797125661332       -1.65332910298086
C           -2.32860177166910       -6.38755186526666       -1.68964826922916
C           -3.72374906008915       -6.62530533254335       -1.72486884628486
C           -4.61775369616606       -5.59938395763882       -1.76215467025363
C           -4.16910009688493       -4.27349541327902       -1.76740779109199
C           -2.83570946435403       -4.00086358046587       -1.73451530016885
C           -1.87122433253048       -5.03644437289058       -1.69344967444078
N           -0.57397178991424       -4.71839459193273       -1.65826880606044
C            0.27640640239961       -5.75723027846437       -1.61530306415771
C            2.22415348346906       -0.33958721885030       -3.01376629660869
C            3.00314204208357       -0.42194163645728       -4.31467378942177
C            0.78732324110902       -0.79449880987949       -3.20891637768740
C            4.94047129025412       -1.23866994667534       -1.77105983398305
C            5.67844027616135       -1.36998467149095       -0.45000486532629
C            5.41828183967032       -2.28372809360303       -2.76583045159742
H            0.97803334228124        0.66944622654786        1.00939886042024
H            0.40434691840601       -0.58587389467200       -0.07592555472043
H            1.09548087253315        0.89974640373948       -0.73200404038604
H            3.32371838373990        0.28273606459857        0.20193805097760
H            1.90651489488076       -2.28662595971448        1.09557358284746
H            2.50172626537793       -1.03946006054591        2.18553651884575
H            3.63338504456563       -1.99888849385729        1.23163354980197
H            4.33940680729681       -5.29259633764172       -1.44570824560528
H            5.93754056081805       -7.13197595206080       -1.35642189854361
H            5.14576406501755       -9.46985861678194       -1.35677441958645
H            2.75865281618851       -9.96004446832511       -1.44632398216808
H           -1.54448597444249      -11.94256345345765        0.64678354083245
H           -1.26317188592260      -14.93721615418419        0.07247490477901
H           -2.76462009651812      -14.02030240472225        0.04234013949799
H           -1.90443849934002      -14.25841429128550        1.55857631653841
H            0.97162954056532      -13.68302013925508        0.55302987291986
H            0.29930801326420      -12.94699559369685        2.00114714857788
H            0.95569796593941      -11.93052479394167        0.71519554769207
H           -2.24415203446780      -11.55479596368729       -3.31881690191188
H           -3.25033600249989      -14.16808245701273       -2.08043845317378
H           -2.34939180224491      -14.01357192617089       -3.58429718237170
H           -3.98570561244058      -13.37366081892250       -3.46398942490701
H           -3.75181854657804      -11.99507563694339       -0.68947365201579
H           -4.40703411751264      -11.18975053544179       -2.10945460252032
H           -3.06124687235589      -10.46751953593429       -1.22347156316198
H           -0.01866259538571      -13.26863435882037       -3.61035050579992
H            2.16317990724938      -13.08406178536528       -1.47108355904831
H            1.89635464454177      -11.93319293330934       -2.77419611372121
H            2.44197599036110      -13.57053584055628       -3.13961024044520
H            0.59461003301238      -15.11926164364377       -1.24881627646601
H            0.73371962602576      -15.54507718224856       -2.94578315561704
H           -0.85239500653000      -15.22252962082321       -2.24733447527418
H           -4.06425658822329       -7.64601091880438       -1.72021011422896
H           -5.67542625733163       -5.80543471127551       -1.78776888619634
H           -4.88454709539975       -3.46788299762244       -1.79760688998304
H           -2.48704471994626       -2.98298113373559       -1.73847555024577
H            2.24492740120096        0.69637524514520       -2.64690505466538
H            3.02596499819286       -1.44810598129575       -4.68328050041098
H            4.03297144676166       -0.08244277207118       -4.19660039179980
H            2.54187827047345        0.19020636452114       -5.09199305430904
H            0.75926025266333       -1.82869012978202       -3.55464538179039
H            0.27224564149783       -0.18432901332274       -3.95331851912353
H            0.21264651571154       -0.74804306839435       -2.28414897787442
H            5.10314512909745       -0.23052111318400       -2.17812502574253
H            5.49353388821121       -2.34776400329943       -0.00372063043556
H            5.37214859703603       -0.60881309158451        0.26856261829614
H            6.75724598742399       -1.27615336075401       -0.58805713006466
H            5.25981479410062       -3.28699846282305       -2.36939791521855
H            6.48467106809125       -2.17878057117944       -2.97452936331771
H            4.88514184504035       -2.22424601708847       -3.71436378039027
