68
 energy: -15.439546733474 gnorm: 0.000628556671 xtb: 6.5.0 (97a52f5)
C            0.83967241726461        0.17801215435615        0.42446953842088
C           -0.37790544405357        0.12884252954234        0.33777827328961
C           -1.78276335192920        0.07402504050189        0.22580684232190
C           -2.44908424263616       -1.16742053176578        0.24074748101602
C           -3.81418105253467       -1.25541554214459        0.13124330085087
C           -4.55432300337437       -0.08163474108779       -0.00060442165028
C           -3.90577318765284        1.16462990597047       -0.01160369988567
C           -2.51954033936998        1.24107831352071        0.09979783116593
C           -4.92615985938911        2.17746239102948       -0.15804564803149
C           -4.86151701905138        3.56616536010231       -0.24297136148737
C           -6.03069963809047        4.29229509418637       -0.40532808277480
C           -5.98837105629463        5.69954578091866       -0.48914554509530
C           -5.94921822427302        6.91835718423929       -0.56318751765958
C           -5.90373534113436        8.32741173457810       -0.64550986053265
C           -6.11006137236643        8.97710880831893       -1.85855133282840
C           -6.06576069546120       10.35341702918036       -1.93750610635053
C           -5.81477801569834       11.10350715672158       -0.80644352459256
C           -5.60781012303590       10.47462799028472        0.40459219248476
C           -5.65176415838516        9.09838237846795        0.48518103528385
C           -7.26185412912160        3.61227782125728       -0.48883132353036
C           -7.33781223864204        2.24452986316035       -0.40959809395537
C           -6.16279084500697        1.51497927430532       -0.23386219580132
N           -5.94511410639151        0.12432760365571       -0.12167892970180
C           -6.94631914981992       -0.90683560707182       -0.16188053912413
C           -6.87729252887184       -1.87953204049757       -1.11287929600321
C           -7.85213121440744       -2.90752003200407       -1.21301278158408
C           -7.75167855448798       -3.89874405184449       -2.20619813677297
C           -8.69083870273891       -4.88633973770842       -2.30569167512490
C           -9.76307092105086       -4.91900389665996       -1.42017614892274
C           -9.88503684755651       -3.96605188155911       -0.44364636671506
C           -8.93887951308801       -2.93665839234873       -0.30875903544330
C           -9.02451606184460       -1.91683779201339        0.72333872401223
C          -10.06145684667288       -1.88556990605789        1.67149960106255
C          -10.09781378355652       -0.93167398072689        2.65367130352524
C           -9.09758219759648        0.02889706423284        2.73533564774388
C           -8.07795380534367        0.02939577595272        1.82414996925330
C           -8.02331316326837       -0.92283480449055        0.79729738189721
C            2.24730340362753        0.23602122528884        0.52212846815460
C            2.90746927309012        1.45952489076564        0.58085062788137
C            4.28249300065376        1.51483474132077        0.67443279994990
C            5.02071537764516        0.34921673841782        0.71074239614929
C            4.38131640444068       -0.87261638832554        0.65398370877374
C            3.00637942883507       -0.92953989292077        0.56045756483933
H           -1.86024065420422       -2.06309004913934        0.34114566568722
H           -4.31846508531665       -2.20497857925713        0.14690153294123
H           -2.02721575328115        2.19612229554240        0.08661169355351
H           -3.91335663936688        4.06836789600304       -0.18425845138854
H           -6.30541421817884        8.38827847163816       -2.73862996732978
H           -6.22740081534908       10.84358667209480       -2.88370907911199
H           -5.78015702331638       12.17898902263112       -0.86884627796901
H           -5.41136411102878       11.05938741241498        1.28842879647369
H           -5.49077259328206        8.60395876387485        1.42806215967942
H           -8.15939307066517        4.19233164817266       -0.61904699696848
H           -8.27937386790431        1.72959856962683       -0.47800642437713
H           -6.06747339238528       -1.85754174504348       -1.81846368126814
H           -6.92046066040720       -3.87021581301895       -2.88965946255401
H           -8.60238720684932       -5.64185631858703       -3.06930282605496
H          -10.50021490155350       -5.70097063692558       -1.50395931446280
H          -10.72118552086542       -4.01362245257661        0.22981676026393
H          -10.84235629754055       -2.62281260914673        1.63200247510480
H          -10.90223059348831       -0.92725802511837        3.37114831404461
H           -9.12747133513977        0.77246812717489        3.51496017595787
H           -7.29691446255378        0.76558492844470        1.88889096860134
H            2.32786536268287        2.36654306225766        0.55181587693356
H            4.78092972346140        2.46943049741013        0.71900550719440
H            6.09521163945939        0.39312809444093        0.78358862388418
H            4.95680037045487       -1.78350149357030        0.68271146753899
H            2.50371253541905       -1.88071237046414        0.51576939902759
