110
 energy: -20.606141784058 gnorm: 0.000711928003 xtb: 6.5.0 (97a52f5)
C            1.29867227674843       -0.51735866496915       -1.07014092591791
C            2.70077783195237       -0.21488228313257       -0.56672764469668
C            3.67442714794898       -1.30412943933829       -0.98118893670138
Si           3.23775234387370        1.53505324641453       -1.11918660190404
C            2.58409588116830        1.85762328337816       -2.74825432544969
C            2.11710005463769        2.06810737938038       -3.85057250900919
C            1.57921720705707        2.31644053365835       -5.12122691499599
C            0.78858057269156        1.32587713136821       -5.75149259701857
N            0.57562816520599        0.17113235083503       -5.10788451518171
C           -0.18847440560213       -0.71298167165652       -5.75752089910918
C           -0.47292436065268       -1.95691103025881       -5.14708194448604
C           -1.25090592364862       -2.88813715407662       -5.76418221885610
C           -1.78853909910272       -2.62979503720880       -7.02950411654604
C           -1.53771839532717       -1.44537938772964       -7.65224179698501
C           -0.73584443442807       -0.44940725344485       -7.04695395528327
N           -0.52122913296564        0.69953635010003       -7.69725429609319
C            0.24158545331184        1.58974420390226       -7.05026077838294
C            0.50955012682449        2.83454147768678       -7.66843530343480
C           -0.01001729947579        3.12658091824013       -8.93818168596933
C           -0.41490980615883        3.45859471045824      -10.03558745288421
Si          -0.88174161579643        4.14056790314740      -11.61957383767618
C           -2.21965764236148        2.99783561012486      -12.36016955480665
C           -2.93731811028953        3.56243628245505      -13.57268249202588
C           -1.64774441385301        1.61611872880073      -12.62311121648976
C           -1.56021287320408        5.88171243828336      -11.24223479365155
C           -1.60778726311189        6.80435123171470      -12.44678920579735
C           -2.89518795898756        5.78785734606055      -10.52542586356243
C            0.68592089187425        4.29226844224611      -12.69943692925176
C            1.67002265115560        3.17715407281823      -12.39007135219105
C            0.39349813966763        4.39666266272267      -14.18511339345444
C            1.29215146483032        3.80973017773552       -7.02951138106008
N            1.50158961793713        4.99230571996183       -7.65016926431771
C            2.24401012531025        5.87961404420726       -7.01871957112486
C            2.38721034274311        7.16835816550512       -7.72813267050397
C            1.31753289827088        7.60078553709714       -8.51255221348004
C            1.40770308133630        8.72323174491669       -9.30160458728115
C            2.58520972815055        9.44301434934554       -9.34186743020263
C            3.66086578320541        9.03444221822886       -8.58755857411052
C            3.58170885524706        7.91003055296353       -7.77597048906083
C            4.76371237140391        7.53083921281348       -6.96872051812918
O            5.86117637175371        7.37233077622109       -7.47161074050507
C            4.55703782391605        7.44316152619136       -5.50482932198234
C            5.34000129019760        8.23368391122631       -4.67339100117842
C            5.17228342497651        8.21196439987651       -3.30808017904170
C            4.21783345985062        7.38586167272696       -2.74876174651598
C            3.44433739333280        6.58689205281677       -3.55742131021264
C            3.58216562295248        6.59641919366579       -4.94567170222368
C            2.79785060535545        5.61317839360588       -5.72217619896736
N            2.58699724017681        4.46970038916497       -5.10058977609151
C            1.83484619407778        3.54832604744008       -5.74380238572605
C            2.55228441732883        2.82862563862158        0.10975278966373
C            2.46143560247085        4.19137485122344       -0.55687573632851
C            1.22031650438473        2.43076570710049        0.72113500246719
C            5.14635200897934        1.64153258068876       -1.15284499754560
C            5.68624512220777        1.06907780567527       -2.45315127299223
C            5.67588510183006        3.04514737440065       -0.91495150927604
H            0.92990670067915       -1.46768356782222       -0.68029689708122
H            1.29162689689413       -0.58396707890820       -2.15877755971036
H            0.58622933727607        0.25825077525000       -0.79024474088936
H            2.69815475962508       -0.13213241092605        0.52915342833876
H            3.71430910522239       -1.38883760404529       -2.06749135341956
H            3.36842551320070       -2.27706083909351       -0.59267154925122
H            4.68455547457497       -1.10869017070021       -0.61981782880704
H           -0.05765232749782       -2.15100364508430       -4.17372024895605
H           -1.45604743672181       -3.82800443670529       -5.27836779828130
H           -2.40370813988931       -3.37282608453093       -7.51004756743681
H           -1.95100114054352       -1.24259945225147       -8.62454515699994
H           -2.92677639423846        2.93872049050774      -11.51936493036422
H           -2.25450568734861        3.68173562997182      -14.41272864926950
H           -3.38127735008634        4.53582014073345      -13.36563603746574
H           -3.73937924930288        2.89896282959530      -13.90048809840666
H           -0.95838937707559        1.63561089054238      -13.46703606121284
H           -2.43335370601460        0.89665763725980      -12.86093526549490
H           -1.09885690794299        1.24084544289247      -11.75793261828244
H           -0.79921710924706        6.25178477903346      -10.53939473783825
H           -2.29238540532991        6.42621148052353      -13.20491059474814
H           -0.62667888793857        6.91301148159654      -12.91076919542425
H           -1.95170782556645        7.80158100547666      -12.16723468482377
H           -3.67058356281375        5.41462645569647      -11.19457770185035
H           -3.22103699017958        6.76277661742760      -10.15850208246389
H           -2.84222957166678        5.10842791587834       -9.67282485380392
H            1.10021160060583        5.24625595712538      -12.34120264344519
H            1.26829224513430        2.21065313128814      -12.69446422680208
H            1.88803227496988        3.11927742837240      -11.32254035638320
H            2.61466270377304        3.32103656015057      -12.91732837288918
H            0.02752798479588        3.44719056800090      -14.57499874252541
H            1.29205970500266        4.65119464514992      -14.74984788821739
H           -0.35976551451271        5.15541316955678      -14.39862181849247
H            0.41133182200986        7.02023607178210       -8.50351128362313
H            0.56525125911362        9.03365548168811       -9.89765191524879
H            2.66317997060566       10.31955430396391       -9.96404136224614
H            4.58513184115478        9.58588655036385       -8.61511356635256
H            6.08348635170054        8.87261066693746       -5.11849716862510
H            5.78549310951441        8.83436614896037       -2.67711361403803
H            4.08911913936203        7.35807440604319       -1.67918443556288
H            2.72233750647533        5.91829442213286       -3.12189313952452
H            3.31979128498085        2.84459085843043        0.89619984061025
H            1.70730584455087        4.17965354338392       -1.34479034467037
H            3.40413280664715        4.48574614664519       -1.01717728144728
H            2.18001163126578        4.96807830165736        0.15633970238679
H            0.44793999171467        2.37627763166876       -0.04643595909031
H            0.89031531213523        3.16235864309829        1.46067581193802
H            1.27132998750433        1.46144167070868        1.21789964763996
H            5.43688098489846        0.99929856653387       -0.30962606605081
H            5.39051424629853        1.69462169449833       -3.29623497708102
H            5.30900453029516        0.06547545655179       -2.64764482400323
H            6.77655349208654        1.02101314822963       -2.44609660990601
H            5.37544682635369        3.71006745826134       -1.72505425268980
H            6.76651741522861        3.05502825770836       -0.87667416488478
H            5.31047446562812        3.46681240277065        0.02190763739860
