99
 energy: -18.077609293062 gnorm: 0.000875187146 xtb: 6.5.0 (97a52f5)
C            2.94460222187868       -0.86717848915563        1.45225350596226
C            4.33652400388473       -0.40677683889170        1.05013781709933
C            5.22950534964263       -0.24308137331884        2.26753551150370
Si           5.06327129135451       -1.57633190459191       -0.27614436091709
C            4.51319488151738       -3.24286927793561        0.05748870540566
C            3.92987560927713       -4.28946410503753        0.26763890324746
C            3.16264480981678       -5.43487789031859        0.50590614166271
C            3.78750884966058       -6.70003428057371        0.65720513340838
N            5.08574861193486       -6.96325265404816        0.59988191294004
S            5.28222072455156       -8.57872690537035        0.82877845574376
N            3.70141436141421       -8.99166523383018        1.00932569452212
C            2.97778499065972       -7.88708394720738        0.89537926274637
C            1.56414252567643       -7.77812891369620        0.97827072035938
C            0.78494202323085       -8.92156688861917        1.18841374625887
C            0.07439099315921       -9.89205500648409        1.36981512782347
Si          -1.05621595074884      -11.25921238230818        1.58375643733112
C           -2.12448783782053      -11.34188401630623        0.00336145301387
C           -2.99442795045215      -12.58009542191352       -0.11541926332508
C           -2.92307491752060      -10.06139327812613       -0.15883134141284
C            0.02566284233620      -12.81661039746719        1.77876616755837
C           -0.69515505001682      -13.98757733905100        2.42227258800540
C            0.67192173436467      -13.18708410575895        0.45571886979030
C           -2.06285223538179      -10.97214932144384        3.18165913408116
C           -2.27013428539948       -9.48905281249542        3.43336207724679
C           -3.36969772086827      -11.74249555654223        3.22531073650436
C            0.95683084690703       -6.51572059180823        0.83397255186563
N           -0.38810781569679       -6.44573425522321        0.92788712156115
C           -0.91463976685071       -5.24444137237949        0.77055395098376
C           -0.12469767928096       -4.08468854882086        0.51502181223558
C           -0.78083692272996       -2.82539659267006        0.33727543534176
C           -2.12201022744023       -2.69613796886195        0.40271883366009
C           -2.96167946592366       -3.82493396601407        0.66208454505021
C           -4.33932924314344       -3.70597745321101        0.73279336886779
C           -5.15587201522226       -4.81639789791345        0.99410445239108
C           -6.56722596143375       -4.71329992873361        1.06836647062116
C           -7.33095449517875       -5.81020255788251        1.32580721099914
C           -6.73323017117447       -7.06469976863432        1.52420239628996
C           -5.38085737063348       -7.20406368235772        1.46048325406463
C           -4.55176150909389       -6.08797659945018        1.19192874823641
C           -3.15610069996126       -6.19748456026340        1.11347909021630
C           -2.35691279844088       -5.10290707785258        0.85288272956399
N            1.19726996129229       -4.12454520819810        0.43135296929626
C            1.75859775608543       -5.33973320684724        0.59044201057980
C            4.41729041854055       -1.04204627145053       -1.99387269780567
C            4.50317271883503       -2.19985061817580       -2.97488141009140
C            3.01198631515580       -0.46740477964492       -1.95449925119156
C            6.97110055015304       -1.45653062942038       -0.24918191656031
C            7.54424755306258       -2.35463007746982        0.83422751172199
C            7.61470308723231       -1.74403077186788       -1.59423822547236
H            2.46176503579290       -0.14988604567962        2.11831995675349
H            2.99600800852743       -1.82118138319381        1.97835692889997
H            2.29560565977167       -1.01215158920332        0.58910711963158
H            4.27645588503430        0.55215380468255        0.51648147274671
H            5.33018151245132       -1.18979473097811        2.79900753564334
H            4.81108996277181        0.47928222901720        2.97070921876010
H            6.22891584808800        0.10105496620436        1.99911586167553
H           -1.34318823229654      -11.37652269942892       -0.77055174404907
H           -3.75811428588574      -12.59953645169917        0.66077900267983
H           -2.41131965135558      -13.49676073955819       -0.02947281496651
H           -3.51119351117091      -12.60817531190870       -1.07636281370474
H           -3.71567472906217      -10.00417904885261        0.58675795931732
H           -3.39495796373256      -10.00418774343751       -1.14147013495554
H           -2.29051394518061       -9.18045727068203       -0.03847720440357
H            0.80032148200739      -12.44905439478658        2.46854542127723
H           -1.52103772940115      -14.32993418829278        1.79977695661981
H           -1.10423734854373      -13.72307925292723        3.39829353978784
H           -0.02293336323482      -14.83536188737145        2.56558203479340
H           -0.07171334347046      -13.55706819250244       -0.25039345595121
H            1.42075660632377      -13.97113704436266        0.58228409778915
H            1.16090980265731      -12.32629424009823       -0.00373253794497
H           -1.37662545846789      -11.37320707840694        3.94210767927614
H           -2.91717183002695       -9.05766965742916        2.67068869883171
H           -1.32654410285623       -8.94148162430155        3.41022214480395
H           -2.73964227086847       -9.30881851025245        4.40204953552849
H           -4.08660923662816      -11.32767894931836        2.51688826793671
H           -3.82857134707695      -11.69076317606162        4.21430483532979
H           -3.22870165769063      -12.79519534668946        2.97838461072742
H           -0.16335914115552       -1.96624827436632        0.14200944537573
H           -2.58215742605814       -1.73347170242129        0.26140301906947
H           -4.79427152311466       -2.74322012904352        0.58588359647476
H           -7.02761639068432       -3.75209248250944        0.91753642807549
H           -8.40349839740805       -5.71860289312054        1.37949006863329
H           -7.35336556278917       -7.92207272515829        1.72911066515083
H           -4.92649656449317       -8.16666389031779        1.61520597119091
H           -2.69105312864055       -7.15406985174998        1.25794062653974
H            5.12350149030897       -0.25061201089643       -2.28190339929507
H            3.81503310265070       -2.99533456285532       -2.68594344588920
H            5.50188585150309       -2.63429207903465       -3.01133110265623
H            4.23734466901555       -1.88706783149283       -3.98624909933326
H            2.29749322234574       -1.22596556511988       -1.63364189026137
H            2.69728937017024       -0.12375652155679       -2.94150180818143
H            2.93439709704225        0.37961964573498       -1.27204503231017
H            7.13796562048908       -0.40153651802974        0.01018953004638
H            7.37533660723797       -3.40338761165788        0.58758817079252
H            7.08293220045413       -2.17235563635482        1.80461692727101
H            8.62091705468955       -2.21206140389937        0.94331187439486
H            7.43816111522495       -2.77846931298739       -1.89034777502640
H            8.69581538874423       -1.59915246869742       -1.55455539507104
H            7.22541260803799       -1.09642789840674       -2.38065364842962
