103
 energy: -18.778155990064 gnorm: 0.000560011004 xtb: 6.5.0 (97a52f5)
C            1.98075517769563        2.13260830806842       -1.05783628153926
C            3.40971616801639        2.63795432356072       -1.15086433747231
C            4.16263657653863        2.35992794439081        0.14013824930965
Si           4.35998737442147        1.92353220391226       -2.64837821885728
C            5.03847291917577        0.34370234745747       -2.16581115277064
C            5.17252636877373       -0.76429414662556       -1.68223873868280
C            5.13734898164202       -2.03026427912645       -1.08903883352981
C            6.32557825795886       -2.78403309506202       -0.89749891734858
N            7.55681291225978       -2.43944133529253       -1.24353917108243
S            8.56384035996765       -3.66105087063411       -0.79819690458154
N            7.44360150907921       -4.66934146361929       -0.14035107877138
C            6.25883038888257       -4.08785273041804       -0.25311293376381
C            5.00726852244435       -4.60352644091781        0.18100152926054
C            4.95382378873224       -5.85268190129034        0.80868931482371
C            4.89528579808311       -6.92908934744598        1.37216571926825
Si           4.80291110998465       -8.47515731636162        2.26239496242959
C            6.40745003421265       -9.43587012382222        1.87860146883896
C            6.64570711876261      -10.65133175646557        2.75602679320526
C            6.48130425601377       -9.77167376708563        0.39965585090940
C            4.68793134671238       -7.98972195928401        4.10241287743386
C            4.16409709568658       -9.09513009025734        5.00131720372512
C            6.01061897071611       -7.42169698278492        4.58536725087634
C            3.21297015432233       -9.39476301057499        1.73986759914657
C            2.87040031340972       -9.10399795696501        0.28886997294430
C            3.25056128701294      -10.88430738619455        2.02887752378409
C            3.83533197065685       -3.84772765932905       -0.01709290126590
N            2.66109351181391       -4.37317126521562        0.41645504184222
C            1.63031390718433       -3.61033311477453        0.18593213325214
C            1.69684855354373       -2.34913421117814       -0.44961808555298
N            2.79597884202284       -1.79657915004769       -0.87462487958954
C            3.90224968840293       -2.55300649350397       -0.66056604295250
C            0.32668487965934       -1.68760391589092       -0.58548709465498
C           -0.23607028627685       -1.60497531763870        0.82954961835477
C           -0.65264177529721       -0.46604846500340        1.49194924862365
C           -1.13951240571201       -0.57204442884908        2.78001124285492
C           -1.21015789616202       -1.80481217773543        3.40368468225482
C           -0.79376181356053       -2.94711608166779        2.74813982419347
C           -0.30454508267312       -2.84898288977045        1.45942902539123
C            0.20271338804401       -3.98890556801589        0.57953003385473
C           -0.61335205436092       -3.93106527848875       -0.70898887999837
C           -1.36245765990823       -4.95006077099117       -1.26597861645129
C           -2.04156062428129       -4.72381688814722       -2.44732334585760
C           -1.97456978286875       -3.49053080324814       -3.07037346335935
C           -1.22750252315628       -2.46757077617914       -2.52010022657811
C           -0.54592236795452       -2.68680929244372       -1.33823180423282
C            3.13394560247136        1.66460498407818       -4.09254977588562
C            3.77821891114193        1.78887297576664       -5.46185941131166
C            2.41572936869206        0.33243399924591       -3.94438169488471
C            5.74226273383816        3.13315645650915       -3.17655702184949
C            6.33466227933954        3.91038426536393       -2.01442418873586
C            6.82271029343090        2.39506618534461       -3.94921923900434
H            1.44809912563787        2.60008931372146       -0.22778557544006
H            1.97067069470504        1.05669751830628       -0.88294271305659
H            1.41320848897327        2.33312615675647       -1.96711611133541
H            3.40160754762412        3.71701481045417       -1.35931382491325
H            4.18306756112716        1.28866072226674        0.34470102626671
H            3.68625325314493        2.84688227546157        0.99294627116923
H            5.19674748225740        2.70023284963731        0.09557016017079
H            7.16429131271820       -8.67158452110893        2.11033608725725
H            5.88859306454906      -11.41499025806669        2.58305267118713
H            6.62443801162473      -10.39823641519277        3.81583231618994
H            7.61582869019510      -11.10529471115081        2.54611183186592
H            5.74965821497302      -10.53614125203587        0.13826748020229
H            7.46557601512548      -10.15576306504257        0.12529515231826
H            6.27843470200347       -8.89578051071230       -0.21914112063799
H            3.94289877224444       -7.18089298547350        4.05852397193997
H            4.84049311114377       -9.94902116202680        5.00876764353171
H            3.18569083097731       -9.45061694985719        4.67525416578094
H            4.06275397353552       -8.75143243300810        6.03227355430486
H            6.77421788171742       -8.19842844284237        4.63074435691162
H            5.92037370931975       -6.99293358884650        5.58514026707327
H            6.37649121889265       -6.64028070378300        3.91663552637733
H            2.46490311620122       -8.91584702238209        2.38880887124062
H            3.61966640500216       -9.52954268681495       -0.37893406281283
H            2.83080265823621       -8.03108407361956        0.09423937000201
H            1.90431758529797       -9.53059521747451        0.01308620970966
H            3.94790949125482      -11.39049639567312        1.36163308855570
H            2.27166276857567      -11.34329103848247        1.87907992703812
H            3.56231678961717      -11.09121251335738        3.05311735801883
H            0.37907914283762       -0.71144284817814       -1.08228223169928
H           -0.59355077709969        0.48867333916896        0.99870987794848
H           -1.46685343114810        0.31249962392645        3.30167798322147
H           -1.59367384415690       -1.87468344297469        4.40853281129841
H           -0.84533787310495       -3.90977632614743        3.22658583292737
H            0.15118951400376       -4.96642829080591        1.07471666209810
H           -1.40828761770118       -5.90708722574321       -0.77580541603045
H           -2.62742727107642       -5.51455564321431       -2.88683408265844
H           -2.50850901719898       -3.32600847263369       -3.99205299364363
H           -1.16919560724792       -1.50490635281673       -2.99775976002306
H            2.42418696653371        2.49213480355758       -3.95302029446620
H            4.50641510431750        0.99222196373698       -5.61658696591720
H            4.29069030916324        2.74331486959143       -5.58744309148478
H            3.03556639287599        1.70696210968766       -6.25756409054788
H            3.11423569553526       -0.49450268058405       -4.07814891984615
H            1.62517128922113        0.21855887289515       -4.68823012692742
H            1.96721098593491        0.21545949051428       -2.95826369451543
H            5.21230350911950        3.82904372860801       -3.84206337188752
H            6.83970893238100        3.23704812413993       -1.32115856324826
H            5.57239763358900        4.45812591311768       -1.45899682674281
H            7.07506193360179        4.63470660244585       -2.35867767581101
H            7.33834311013298        1.68604938398783       -3.30014764274391
H            7.57171269020080        3.08344129388298       -4.34489809216677
H            6.41400338439822        1.82916002271744       -4.78619722908039
