92
 energy: -16.365081833757 gnorm: 0.000417263874 xtb: 6.5.0 (97a52f5)
C            1.06358836950603       -0.84769091694284       -0.52109517928668
C            2.43753842184377       -0.21037667451204       -0.38341914655773
C            3.39706925733999       -1.15683870168867        0.31685336517392
Si           3.07422157750728        0.35682812225212       -2.09447013170699
C            2.70097810110260       -0.90105538346215       -3.30560229677468
C            2.40373690666283       -1.71398551800799       -4.15984817019049
C            2.04202097283935       -2.62405650252406       -5.15977920438230
C            2.36783918921567       -4.00063249633425       -5.01316989291838
N            3.00835733443140       -4.56528747594584       -4.00141409669350
S            3.13583556258852       -6.17356385795645       -4.32018295704558
N            2.36717095907645       -6.19184979398078       -5.77311955849607
C            1.99037696716119       -4.95153585292527       -6.04815845658203
C            1.29517273832516       -4.50377798355909       -7.20262763237645
C            0.92965950638715       -5.41709954520885       -8.19750920035555
C            0.60034701241267       -6.17712448588095       -9.08833575535307
Si           0.09731008030189       -7.20172913366675      -10.46276944735878
C           -1.16420834824943       -6.18818631105860      -11.47602186815597
C           -1.51503230133736       -6.78092289450318      -12.82862106939214
C           -2.39748505246895       -5.89042815381188      -10.64225863009619
C            1.68934911939397       -7.53654457702428      -11.45661626503308
C            1.59580073331184       -8.72791445034277      -12.39268088104049
C            2.14720431896091       -6.27309040861946      -12.16371082708946
C           -0.60413898164649       -8.84294096273023       -9.78340467240010
C           -1.30618533652911       -8.62453251941961       -8.45412010379007
C           -1.48220231346876       -9.58559935675684      -10.77375469810007
C            0.98033416830751       -3.13718879650017       -7.34057476130813
N            0.32042431091051       -2.75933326265768       -8.46359582111229
C            0.07386956954721       -1.47449447645670       -8.50407368663280
C            0.44493203277216       -0.54940583361303       -7.49861415544036
N            1.07614820216746       -0.85788899139794       -6.40608808168291
C            1.35921728203018       -2.18777889541715       -6.30863867092766
C           -0.00759304356964        0.82207359143804       -7.92399896781995
C           -0.67234372261363        0.60798929577390       -9.25543894911167
C           -1.27491063466431        1.50015645558758      -10.11872494086555
C           -1.81603705335404        1.02562824724351      -11.30150357694688
C           -1.75661552891180       -0.32354444332049      -11.61895352423346
C           -1.15625362318475       -1.22261570793050      -10.76176631421841
C           -0.61253364848123       -0.75100016677714       -9.57500531068646
C            2.25537622213007        1.99719445830718       -2.62781784880863
C            2.39465526265818        2.17185224071457       -4.13097393734255
C            0.81187713729851        2.13104950166347       -2.18098527004238
C            4.95141201539485        0.69656947545563       -2.09966625575975
C            5.38500515281408        1.62648568014661       -0.97936518344062
C            5.76287453062417       -0.58661179139065       -2.14706683508722
H            0.64014316937042       -1.09746223838870        0.45343513856436
H            1.12885576716559       -1.77182608109731       -1.09697171975104
H            0.35575548565912       -0.19774881185793       -1.03405570989027
H            2.36276236869619        0.72894974425147        0.18220680812936
H            3.56561523703305       -2.04780897670739       -0.28922521449618
H            2.99680504940012       -1.48619046989824        1.27738759995360
H            4.36498302373164       -0.69579544240303        0.50914177169084
H           -0.60125256844165       -5.25516239243046      -11.62770296583120
H           -2.04314120689848       -7.72699071625325      -12.71745210427860
H           -0.62786326089733       -6.96639895672990      -13.43367872916932
H           -2.16567634780106       -6.11274657963001      -13.39561440454545
H           -2.98893999878573       -6.79309513160305      -10.48870214910297
H           -3.04266228736262       -5.15743798415145      -11.13015602667331
H           -2.12926951254564       -5.50012279296707       -9.65898502400382
H            2.39577050478189       -7.77253169094162      -10.64648079392402
H            0.84940172433265       -8.56077716143641      -13.16835163711534
H            1.32109928454862       -9.63907119823682      -11.85952089707401
H            2.54811148332430       -8.91332161232816      -12.89262874853236
H            1.46455554928253       -6.01034783480185      -12.97205039034182
H            3.13959312615544       -6.39675008329340      -12.60114131706852
H            2.18541037452352       -5.42451403166414      -11.47812398209823
H            0.31950867113689       -9.41565985785022       -9.61300943722249
H           -2.20548434538424       -8.02249484014154       -8.58521228667085
H           -0.66428758687525       -8.10241267808137       -7.74289597737997
H           -1.60773525567184       -9.57078995807690       -8.00134591936312
H           -2.42891450236366       -9.06503759199019      -10.91705407021252
H           -1.71832092755125      -10.59069210975897      -10.41956580311591
H           -1.00429783497570       -9.67988014502502      -11.74928098132008
H            0.84529962195339        1.50277931791198       -8.01328850225454
H           -0.70733955313065        1.24495632095629       -7.19586092812655
H           -1.31671431561400        2.54531846362293       -9.86588005328213
H           -2.28858091606079        1.71335479159862      -11.98351409199235
H           -2.18313987032763       -0.67361279847751      -12.54475511768150
H           -1.10186025777826       -2.27160534049170      -10.99434017425285
H            2.86385015376052        2.75280309664396       -2.11176265583252
H            1.82115042379227        1.40848362272473       -4.65852807930809
H            3.43248385265236        2.08159563879481       -4.45502650422447
H            2.02456240580058        3.14563982234868       -4.45689994011674
H            0.19252690139633        1.36545654356147       -2.64929493509469
H            0.39809143631056        3.10074094996396       -2.46356457251283
H            0.71292135894174        2.03423038735479       -1.09887623798442
H            5.06641398505602        1.21911826733752       -3.06059078543760
H            5.24919600436063        1.16066934474961       -0.00431219828996
H            4.81045660129134        2.55370883373635       -0.97810588004626
H            6.44048305872700        1.88960766374373       -1.06892855511116
H            5.68304937294835       -1.13912301823158       -1.21186508853925
H            6.82211851844536       -0.38232404577656       -2.31343593998120
H            5.41981260728304       -1.24494098326482       -2.94687592137749
