101
 energy: -18.548670367104 gnorm: 0.000575065577 xtb: 6.5.0 (97a52f5)
C            0.81702170821074        0.94714763511492        0.32516094822791
C            2.30908943773313        0.74976618646441        0.52915968423148
C            3.00966373255295        2.08122901908976        0.74341270491936
Si           2.72289857793099       -0.45978140019405        1.95023081390891
C            2.77746130789072        0.42202653139780        3.50205987774307
C            2.64486323395541        0.94185060622688        4.59337158430920
C            2.39903801354143        1.49459162312026        5.85527333595966
C            3.09103405303611        2.65958718610031        6.28429172978888
N            4.01675203555724        3.33199358039542        5.61652735843500
S            4.50203701127790        4.58886805413898        6.55721516006180
N            3.53472393652940        4.30739220291153        7.85520975594186
C            2.80837965174109        3.23094415147815        7.59337003520450
C            1.82933695554581        2.63094222216741        8.43036876519553
C            1.53416867695245        3.16808865243076        9.68840133590830
C            1.22432604095755        3.55942216841534       10.79732832925433
Si           0.65038259693526        3.92854628906436       12.44801784393841
C            1.87732404950853        5.17842623187877       13.20717548625755
C            1.41937490243108        5.80321944973032       14.51248657752358
C            3.25954587113953        4.56014724560379       13.31944218945148
C           -1.08926835285787        4.67761887654721       12.23062801014474
C           -1.93764254494751        4.64435908665894       13.48911937499684
C           -0.99663715527343        6.06725717020556       11.62582170660476
C            0.52536358808095        2.28587097883417       13.41463392337070
C            1.59518130273371        1.30538649289895       12.96485021949894
C            0.51578799579736        2.46332816386813       14.92185352142569
C            1.15068443970941        1.48473168564168        7.98409489013501
N            0.19973771957216        0.95129063818899        8.78431800208273
C           -0.42707868861738       -0.12222657689116        8.34667861540186
C           -1.46275573887098       -0.64043801404215        9.26297985992614
C           -1.28421821819630       -0.42426916842027       10.63026884601909
C           -2.24959095522358       -0.75990283055996       11.54956244798861
C           -3.44248735671430       -1.30949117969127       11.12365839614538
C           -3.65438977143970       -1.52246632156410        9.78130357555835
C           -2.68352656418962       -1.20263494821901        8.84028749879753
C           -2.96645077070192       -1.48265279261768        7.41331602321595
O           -3.97926947204796       -1.08059780665874        6.86841320750082
C           -2.00013544845590       -2.35825684504092        6.71236637990904
C           -2.45789415721269       -3.53255299383969        6.12831880573127
C           -1.59022624081552       -4.40010229994789        5.50618792820926
C           -0.24282997938839       -4.10193609436255        5.45310586755137
C            0.22346050327495       -2.93382291383148        6.00837777672159
C           -0.63162121515243       -2.03748846511209        6.65068112915620
C           -0.07242444898569       -0.74638741468404        7.10313485100768
N            0.84077900578125       -0.23346988762686        6.30284615680480
C            1.44893362416618        0.90540564368483        6.70669064552442
C            1.35844416120392       -1.79591276904214        2.04912965777731
C            1.85984005718832       -3.12905056035361        2.57463377844614
C            0.18394863764274       -1.29109410090634        2.87206855822404
C            4.40913966107724       -1.29532346459426        1.61381958867868
C            5.38278015556374       -0.40811392729200        0.85816298834623
C            5.01897192032292       -1.79270703918132        2.91424156987005
H            0.61709429744936        1.59663653162134       -0.52878739815771
H            0.37013408493080        1.41859128267858        1.20075620065188
H            0.29915297967024        0.00414607717137        0.14821051211732
H            2.72913925833568        0.24065449746972       -0.34954207222128
H            2.60160039725242        2.58922125087286        1.61786233998280
H            2.87716815366530        2.74464086614333       -0.11298526979070
H            4.07961683270881        1.96025017656754        0.90992564097226
H            1.89360584260715        5.95175024657606       12.42486350663602
H            1.34983124825543        5.05636745070543       15.30203081025737
H            0.44199388502135        6.27529512039752       14.41600127378837
H            2.12116634866498        6.56703461997484       14.85163699609129
H            3.28121361818235        3.79778088675100       14.09799784877040
H            4.01246253591365        5.30789217603813       13.57489157017648
H            3.56115947308007        4.08561930515209       12.38405688049694
H           -1.52282974129618        3.98997101548804       11.48901623632183
H           -1.49676569653881        5.25472774797799       14.27622360367864
H           -2.04497762834184        3.63046379241711       13.87663889877518
H           -2.93997762044766        5.03222907261279       13.30010911653664
H           -0.56261872543847        6.77216340633830       12.33507509432492
H           -1.98072975998704        6.44809388971291       11.34703813344321
H           -0.36908239536692        6.07168737469463       10.73278810292267
H           -0.45822920677785        1.92109892546831       13.08408694170420
H            2.58632814545535        1.65340679066197       13.25561754288104
H            1.59786892846248        1.18344454505871       11.88071861778204
H            1.44842451642848        0.32106121320280       13.41274015678603
H            1.49619790350725        2.77577151107589       15.28060124935137
H            0.27039225252801        1.52921910508040       15.43000687667415
H           -0.20825634267976        3.21455599695097       15.23810177698000
H           -0.36989813281430        0.03911300511574       10.95710057567258
H           -2.08170588203091       -0.58243334443224       12.59924539302105
H           -4.20568104930696       -1.56628841366394       11.83994166628757
H           -4.58299534627053       -1.94698230808833        9.43991097981683
H           -3.50944200170064       -3.75801872560541        6.17710746986301
H           -1.95985240126979       -5.30985852636835        5.06220486070713
H            0.44035271315759       -4.78037154145848        4.96919444295095
H            1.26879163093046       -2.68536565416261        5.94459327410470
H            1.05789231629002       -1.91514497573768        0.99889073978995
H            2.19374734588737       -3.03225261248219        3.60753707215742
H            2.69306247792669       -3.51452049709589        1.98650613421354
H            1.07029678154313       -3.88213842833310        2.55800905080457
H            0.48511128399230       -1.13524283987154        3.90836203144809
H           -0.63998539078640       -2.00672701390526        2.87427824851608
H           -0.19880433111631       -0.34033278803548        2.50196173315432
H            4.13244773830024       -2.14762855912330        0.97777113753562
H            5.65279387296687        0.46159594262105        1.45762927479760
H            4.96461857454010       -0.05262753102128       -0.08407978046580
H            6.30668666277792       -0.94140895963922        0.62773402478429
H            5.28478333453712       -0.95159865633397        3.55571240214746
H            5.92806732642019       -2.36923992998026        2.73456854037838
H            4.32928140514748       -2.42198047466898        3.47623222400844
