130
 energy: -22.766551141168 gnorm: 0.000773339850 xtb: 6.5.0 (97a52f5)
C            0.67029290820114        0.62588455676756        0.22845863607151
C            2.10607276303979        0.12811202063520        0.20505249666375
C            2.91177216471962        0.83974453537474       -0.86802593770858
Si           2.88202005795168        0.25529014332287        1.94765655382517
C            2.32114214101828        1.74842050474890        2.75213509511093
C            2.00119638207724        2.79459811822400        3.28138490595625
C            1.66647321438769        4.03163324630215        3.88013695924206
C            2.15534962636417        5.21845452925197        3.36053727906832
C            1.85560456400551        6.45606363369896        3.92960458419964
C            2.38559028260340        7.66808016184154        3.36393806291921
S            3.34097330961491        7.62037663117583        2.04161310653538
C            2.05854970214825        8.92273081497387        3.98727337051405
C            2.55818381419825       10.12058954166719        3.47565081162630
C            2.26690510417265       11.34550866048731        4.05227485981188
C            2.79405118006318       12.54358071701161        3.51569689977040
C            3.25646159889223       13.56819781902383        3.05369133464655
Si           3.95937359538727       15.05690015155000        2.35740590252838
C            2.52562562649968       16.02992876506566        1.55570913810449
C            2.87507382707818       17.44594130745316        1.13462500342542
C            1.91133734006292       15.22833796281486        0.42171472273924
C            4.72288751776682       16.00665512057224        3.82376074867061
C            5.74449166322144       17.05334677963082        3.41636171866137
C            3.63184505783462       16.57235935531858        4.71580669326748
C            5.33239272351445       14.56245890191428        1.12502746090072
C            5.00351246164542       13.24398488454174        0.44531319771443
C            5.67081663843266       15.64999589558144        0.12205200258578
C            1.44985977020674       11.36473511124186        5.17034953918763
C            0.92251532835945       10.19732057398388        5.72325486969125
C            0.07835924604856       10.25523391153636        6.88676858632108
S           -0.28301218369144       11.68715230167073        7.58152676192151
C           -0.44043874318324        9.02668824567136        7.42678761164681
C           -1.26216987310648        9.03919955253583        8.55379613926503
C           -1.77837104871789        7.87696489775109        9.10199168747865
C           -2.60904086609406        7.93016870982471       10.24606407352274
C           -3.31885971851293        8.00189875135779       11.23007816176425
Si          -4.34177781139561        8.15637738585844       12.68809455876198
C           -3.25368605179531        7.68543275385788       14.18457382145974
C           -3.86100256990972        8.00267491701273       15.53927982787294
C           -2.80882594467895        6.23741600353175       14.07935108545179
C           -4.87360245968922        9.98628837284439       12.75424039201586
C           -6.08317265048923       10.24656858617291       13.63423723175172
C           -3.69176397356270       10.87044310615874       13.11150603819410
C           -5.88232293013023        7.04644338404110       12.48185272320636
C           -5.55246919510454        5.80569890762970       11.66965778356730
C           -6.56515588019028        6.70286208636310       13.79301492506027
C           -1.45827957077121        6.67116058774480        8.50019019403977
C           -0.64088373385924        6.60013881099132        7.37120076197336
C           -0.32710423393079        5.32994697444106        6.77179524647806
S           -0.92063133549713        3.94551746969742        7.39976168671000
C            0.52017501247624        5.30305241326375        5.60880907982321
C            0.85285584619748        4.09241788111013        4.99945900240246
C            1.02490355761914        6.51529129265813        5.07591780236541
N            0.71033813700318        7.75096118089404        5.67306495527477
C            1.22468152677075        8.94533179340496        5.13259644622301
C           -0.11572301714968        7.79194325843281        6.81256232265168
C            2.37825237632005       -1.27352458372307        2.97932689241369
C            2.47182521954668       -0.96115833997079        4.46376951361502
C            1.00825453952056       -1.82259170561629        2.62166970573193
C            4.78626110420697        0.30372083904947        1.78498942619392
C            5.25615445425085        1.71854732696410        1.48727230904736
C            5.51000800042226       -0.26680491593055        2.99268221597030
H            0.17189840732259        0.45470285378976       -0.72755721094272
H            0.64228897920208        1.69823384340395        0.42665660251230
H            0.08019307253242        0.13930519730906        1.00481537237158
H            2.12641299407807       -0.95358711472417        0.01273896886094
H            2.93745627049932        1.91330269908576       -0.67908585070951
H            2.46956507051677        0.69581079952317       -1.85554026980018
H            3.94067344599671        0.48063903317634       -0.91329104927793
H            2.78746152763587        5.18125198208110        2.49267920737736
H            3.19110005223297       10.09497769052016        2.60801224871039
H            1.81267462928925       16.07008946109304        2.39284200178356
H            3.61531617987315       17.44675137229575        0.33564080512095
H            3.28070416792951       18.02772558497735        1.96211218108682
H            1.99646794946469       17.97487935080214        0.76089389013109
H            2.58858746274035       15.18108270635689       -0.43117834223817
H            0.97954760558554       15.67777351906421        0.07299688488587
H            1.69565199263354       14.20325540046796        0.72876704640526
H            5.23756404195009       15.19225334286026        4.35572966781149
H            5.28460281415378       17.83934833657555        2.81844646631925
H            6.55344479302428       16.61970297149034        2.82674818783721
H            6.19262377938809       17.53000110962056        4.29008903173331
H            3.09920931377211       17.38059016404950        4.21412738156239
H            4.04257819622583       16.97726096467188        5.64267644809678
H            2.89693032636795       15.80921294517145        4.97889764083924
H            6.18560828343396       14.41437112173212        1.80340558644075
H            4.12745926021677       13.34698491413076       -0.19539691281023
H            4.78590124399841       12.46030961915101        1.17312778937003
H            5.82946810982286       12.90009421345077       -0.18022463738696
H            4.85961726703121       15.78176704569051       -0.59377604370567
H            6.56634115992636       15.39905071043850       -0.44957549456614
H            5.84440012602477       16.61092510346112        0.60750747682594
H            1.21765948412587       12.30989126406793        5.62498765890350
H           -1.50434221949117        9.97938229051237        9.01360387080295
H           -2.38476265662788        8.33984423536579       14.01885313422913
H           -4.75122371379793        7.40199241849171       15.72105075947034
H           -4.14679713047379        9.05117476538769       15.62137193366496
H           -3.15804063144260        7.78970400672556       16.34668662001759
H           -3.64577999818925        5.56102342200611       14.25350241901210
H           -2.03950767487298        6.00053686661664       14.81686086798094
H           -2.40545511600894        6.01481399680098       13.08972854715957
H           -5.15077756262430       10.16193822277177       11.70378001323375
H           -5.86994448580650       10.00804958989809       14.67561181163518
H           -6.94221829783215        9.64842847277215       13.32699546239447
H           -6.38179119632009       11.29574275700605       13.59600968832067
H           -3.39029988076662       10.71662209480967       14.14787830122918
H           -3.93389297209197       11.92853930927835       12.99516862143902
H           -2.82656264720826       10.65236662670107       12.48258127587617
H           -6.53952049756419        7.70002118552466       11.88935192379884
H           -4.85966216706637        5.16153777514917       12.21160662828684
H           -5.08412915010171        6.06197802989774       10.71769437560893
H           -6.44779632145859        5.21892683785083       11.45554573568082
H           -5.95525100073356        6.01454210272011       14.37785412150136
H           -7.52759200810244        6.21598615514843       13.62461312374817
H           -6.74291138498126        7.58910028358469       14.40310588790195
H           -1.85288061981970        5.76367703429362        8.91817301147053
H            0.46928938228331        3.17708123052810        5.41046699120812
H            3.14419459979471       -2.01100077039174        2.70089805737517
H            1.71869693145196       -0.22414559194525        4.74584501914031
H            3.44372852366474       -0.54932991424934        4.73538009596912
H            2.30337116456186       -1.85192798404879        5.07181178099099
H            0.22931130564471       -1.10037887435439        2.86815050126273
H            0.79024523184156       -2.73567340732474        3.17871774038463
H            0.92642585997608       -2.05818470869952        1.55963924906209
H            4.96870702856241       -0.34444525176133        0.91622087556628
H            5.07447874374312        2.36851386312939        2.34410337058757
H            4.73283392760587        2.15388773400886        0.63642930897177
H            6.32626174216438        1.74867382716953        1.27414883871439
H            5.31960694888895        0.34245378670314        3.87669306941538
H            6.59035835970646       -0.28065818965324        2.83625703678903
H            5.19710598416540       -1.28789503565222        3.21398821061983
