98
 energy: -17.648163143970 gnorm: 0.000352316832 xtb: 6.5.0 (97a52f5)
C           -0.52112304383737       -0.36976223818655        1.43045817117447
C            0.98750762204095       -0.34556903230528        1.60428469258318
C            1.69811951986317       -0.12498630775545        0.28070486784060
Si           1.49585135872863        0.96945106132425        2.88646751843418
C            1.11956776477888        2.59946537154071        2.26004813277341
C            0.93177560879026        3.71665370108151        1.81996594411000
C            0.75890198652757        5.01368098076371        1.29380250510109
C           -0.44538234921977        5.66173238696340        1.42280516792257
C           -0.63042019618872        6.94428847593116        0.91652217692910
C            0.38808525412000        7.60509341565601        0.27493106620533
C            0.19993477514203        8.90231654705934       -0.24623864873593
C            0.12342315173869       10.00669231752262       -0.74789227356768
Si           0.19765363189304       11.55433350140232       -1.63779541742421
C           -1.56901496257651       11.93306306122643       -2.25336882062400
C           -1.75765654865333       13.32697229063343       -2.82373209582139
C           -2.03456940564564       10.85153986983131       -3.21208822977547
C            0.81319086823784       12.85654775570239       -0.38897880883887
C            1.37514635451824       14.11026766680724       -1.03511082788956
C           -0.26466054944002       13.16171393127091        0.63590030714787
C            1.47613228820091       11.36699848324761       -3.04419494206162
C            1.51589990251106        9.94048634988312       -3.56545238968444
C            1.30926615829640       12.37679222463674       -4.16455315591471
C            1.65698055517537        6.97247785163811        0.11973795718062
N            2.64039725459704        7.64522452346755       -0.50525397240603
C            3.78559444510203        6.99657075649999       -0.61849202964863
C            3.97175974016557        5.67467986024900       -0.12190367441124
C            5.24614975702770        5.04063258566364       -0.30295180028693
C            6.27311651207331        5.65326013590894       -0.92379022857562
C            6.14260235768627        6.98563361618152       -1.43411028855525
C            7.19219678651365        7.62941933363909       -2.06632161789709
C            7.05837651924735        8.93744287610079       -2.55557605721199
C            8.12267818328143        9.61372230427856       -3.20396984528244
C            7.96034366071860       10.88413260092838       -3.66323710922855
C            6.73379563740563       11.55013102857675       -3.50269754791448
C            5.68922466617943       10.93496464650023       -2.88553062869756
C            5.81794833115397        9.61214554489034       -2.39472597912345
C            4.76130191298016        8.94999931653738       -1.75450952902818
C            4.89713314828742        7.66216316675261       -1.27826959429911
N            3.01366144614511        5.00541137010953        0.50317446264038
C            1.84486146424614        5.65928543381041        0.62945290189702
C            0.51118673106787        0.64250536937874        4.49048076881355
C            1.33034595628984        0.88281110786634        5.74655123653918
C           -0.76658162041931        1.46542452025815        4.49409710406683
C            3.36582434213112        0.84983908728569        3.24647007584948
C            3.82542792306079       -0.59333538279458        3.34668905398006
C            4.18802218208757        1.65913346446695        2.25754027491478
H           -0.82522032993130       -1.11727365568074        0.69525462597721
H           -0.88203284172360        0.59921621566212        1.08245814633740
H           -1.03389722489612       -0.59967130914807        2.36560383872569
H            1.32123832188360       -1.29123101090850        2.05426352379814
H            1.46562666177898        0.86294809100761       -0.11914712449216
H            1.39075074974642       -0.86243002981328       -0.46318272060204
H            2.78110921305181       -0.19403264455648        0.38306121947905
H           -1.25503937332767        5.16077023987296        1.92593144305342
H           -1.58345324784087        7.43372328935036        1.02463888797681
H           -2.13655827923121       11.84891871729045       -1.31444233106797
H           -1.17298418182462       13.46138559437422       -3.73292431273115
H           -1.45406782642751       14.09975291818666       -2.11754613152391
H           -2.80244260199163       13.50979674305609       -3.08183548735105
H           -1.50017669952460       10.91753024952370       -4.16001254952595
H           -3.10020415053288       10.94267010757256       -3.43150521622382
H           -1.85942465183825        9.85418282665851       -2.80409295408842
H            1.63222721580723       12.30781483759162        0.10025968341405
H            0.60647252038461       14.64129256101364       -1.59571235084451
H            2.18785415801329       13.87919911611972       -1.72528177840188
H            1.76612178454614       14.80072433316221       -0.28547387931330
H           -1.09498851208494       13.70032991694567        0.17835662729501
H            0.11966905727941       13.78202028845054        1.44793623790160
H           -0.66854975851462       12.24677681426622        1.07373091636802
H            2.40800534946549       11.57747591925866       -2.49984419673098
H            0.58897660990370        9.69111862135932       -4.08230427564919
H            1.64137275761405        9.22021004045594       -2.75555222949688
H            2.33546344913571        9.79583677332945       -4.27180474503563
H            0.41531653430997       12.16106966237444       -4.74966165478607
H            2.15724725256580       12.35159044156461       -4.85157997487774
H            1.21916381165257       13.39480424538202       -3.78406316651124
H            5.36201491727765        4.04078484211089        0.07728016957240
H            7.21525743151793        5.14658302224916       -1.04340630852323
H            8.13102036396141        7.11886875200773       -2.18334776155258
H            9.06388066925856        9.10589946866272       -3.32716609147671
H            8.77718337338843       11.38770274286485       -4.15425709541528
H            6.62352892901931       12.55664851825595       -3.87239192884593
H            4.75178113112480       11.44816960355556       -2.76109279497095
H            3.82292918942986        9.45583416206835       -1.62541232993834
H            0.26570779484786       -0.42645605485466        4.41379323388949
H            1.66336415811115        1.92056670465789        5.79484228028986
H            2.21500495018157        0.24552138209414        5.78432994187968
H            0.74404141993913        0.68507077832958        6.64585295541202
H           -0.53480283171177        2.52847510051587        4.57401294414632
H           -1.40932450065921        1.20474487645432        5.33709418884395
H           -1.34160026765989        1.32803634926738        3.57740207969990
H            3.43968630783748        1.32773104291752        4.23342408261777
H            3.78716788042016       -1.08136976723720        2.37241027719857
H            3.19430861307106       -1.16921041711684        4.02584661704101
H            4.85455978349012       -0.66109415567316        3.70448896150648
H            4.13605066401851        1.22949061046640        1.25791612198004
H            5.24090864599275        1.68926193451790        2.54415804130123
H            3.83009853170501        2.68792366487184        2.18851546828426
