38
 energy: -8.590172637253 gnorm: 0.000614542774 xtb: 6.5.0 (97a52f5)
C            0.87443596025136       -0.08325724143684       -0.02378309877626
C           -0.34777577227735       -0.07161783842039       -0.00740442864357
C           -1.75438774789609       -0.06038027784970        0.01252702465945
C           -2.42966185697106        1.15806121695206        0.02662624310719
C           -3.80374220504447        1.22277199854536        0.04959353013852
C           -4.57441152710014        0.05844873005226        0.06015638011617
C           -6.00381222568964        0.09085946542499        0.08620807748365
C           -6.73118151785137       -1.04836956084832        0.09531180334328
C           -6.09849261051376       -2.33114390728748        0.07890379338556
C           -6.82654719770861       -3.52226511842240        0.08663048197901
C           -6.18344883037732       -4.74273831560326        0.06945466047852
C           -4.80580262008869       -4.81356190829839        0.04423384995633
C           -4.03115073848705       -3.65215142238469        0.03587618551861
C           -2.60173708942268       -3.68551816979467        0.01016974833176
C           -1.87500579111899       -2.54609153930411        0.00324605285634
C           -2.49970399572398       -1.25912593960669        0.02020634449483
C           -3.91556617064926       -1.19401352872923        0.04471367075588
C           -4.68357961030707       -2.39565897560955        0.05338159811528
C            2.28556968080830       -0.09338444600081       -0.03708436276784
C            3.00512382120024        1.09772697230261       -0.04181833743671
C            4.38423880470496        1.08771179164760       -0.05368685051773
C            5.06704053961056       -0.11166318152166       -0.06078164815305
C            4.36823716500099       -1.30183062203188       -0.05649752155211
C            2.98908134070074       -1.29396288917696       -0.04471290840826
H           -1.85014933771209        2.06559735816822        0.01968873706031
H           -4.29987853169667        2.17788531018636        0.06011017171235
H           -6.49562025266188        1.04815964554443        0.09892287331593
H           -7.80642394332755       -1.00558255408555        0.11524593368640
H           -7.90181182069024       -3.47696794245085        0.10618792094646
H           -6.76377885367883       -5.65096810155595        0.07560937070135
H           -4.31295322524065       -5.77034658050533        0.03076736054981
H           -2.10974228465411       -4.64268727561931       -0.00355011715132
H           -0.80032007011630       -2.59266552222936       -0.01612399381865
H            2.46754973086109        2.03067379477647       -0.03609847126561
H            4.92885481406721        2.01782632575186       -0.05711977887344
H            6.14490194694517       -0.11876542116320       -0.06983585437235
H            4.90064712106094       -2.23896521558915       -0.06221314529947
H            2.43963490179293       -2.21991911380393       -0.04129129564992
