92
 energy: -16.261103854990 gnorm: 0.000766141534 xtb: 6.5.0 (97a52f5)
C            0.99428508011928        0.42986936053977       -0.05068611434513
C            2.37998828805201        0.59044898448305        0.54917054481741
C            2.51715805792778        1.93024104291485        1.25441720614191
Si           2.86255841548060       -0.83406168719029        1.72933236628719
C            2.29494999521076       -0.44080362945294        3.37654605009316
C            1.93343211775510       -0.05880616146096        4.47206351456248
C            1.53745961089997        0.44999160605837        5.72635134481362
C            0.97905111666198       -0.37460194841338        6.67131793362287
C            0.58390846300749        0.11682003763257        7.91265451956132
C            0.74585658849181        1.44153004100586        8.23373684103134
C            0.33712860120797        1.94105227608951        9.48812667183657
C            0.00024726333818        2.45826479754310       10.53515369998872
Si          -0.45922773875729        3.42523125473853       11.96621951451949
C           -2.01157893527304        2.61472895740790       12.72619710740901
C           -2.39457835447087        3.14191414578371       14.09720268503695
C           -3.17028296149064        2.66836351909307       11.74624340782167
C            1.03483558467538        3.34470090247339       13.14796557222672
C            1.05567074750005        4.44520467550133       14.19352254392596
C            1.15456136025685        1.95900874270491       13.75747829058579
C           -0.73848710698520        5.22801577131863       11.39955349219616
C           -1.30294159375682        5.27439793376227        9.98959108214932
C           -1.56563034716469        6.05238761839327       12.36891130894309
C            1.32815926515418        2.33624710646286        7.28561755182224
N            1.48763769399546        3.62468164204349        7.62901799348577
C            2.02038242955617        4.39868684113975        6.69592649886943
C            2.39296373306805        3.90566607243485        5.41333135885710
C            2.94219399484141        4.81813875863453        4.45802349493321
C            3.12031202972350        6.12620494421592        4.73705730386508
C            2.77003783606832        6.66072037846783        6.01459640641641
C            2.95477091067814        8.01707046999217        6.32573219171173
C            2.61662034012652        8.50378199768055        7.56089658926124
C            2.08591328261820        7.65485173752316        8.52714923733475
C            1.89680350745567        6.32779693266374        8.24685107219388
C            2.22757524388911        5.80267851532747        6.99199032915928
N            2.25301124384646        2.63051794227249        5.06902059271813
C            1.72099611207902        1.83749486025827        6.01253066737106
C            2.05692325364724       -2.45972285861736        1.12693978504871
C            2.84557565328864       -3.69991617781894        1.51021198931765
C            0.62129066427481       -2.55391815273501        1.61665163148873
C            4.76390354671500       -1.03476269066395        1.72873559596200
C            5.51149647276461        0.26688378905900        1.49787461494686
C            5.22385550652538       -1.70784615946318        3.01158253763623
H            0.77701494982356        1.22688894417446       -0.76437094188303
H            0.23186820784297        0.47707899900110        0.72757081915271
H            0.88308312160165       -0.52015142693101       -0.57500452971681
H            3.13055879716566        0.50631699393540       -0.24933147220915
H            1.78607990485893        2.01373101663629        2.05979266356121
H            2.34822250601835        2.76290724966618        0.56894432116563
H            3.50250994256271        2.06018489694590        1.70109409566384
H            0.84658953451513       -1.41781101440300        6.43941021360393
H            0.14265948527243       -0.54545365400315        8.63806465672650
H           -1.67213979351911        1.57242291592595       12.82358623650407
H           -2.69547278256666        4.18768071690421       14.04564553779665
H           -1.56948917358356        3.06983143305662       14.80575519953124
H           -3.23534438916869        2.58409650885624       14.51381060208883
H           -3.54438340468906        3.68726726485975       11.64298866535864
H           -4.00479379223965        2.04772821270049       12.07871144370882
H           -2.87023037293774        2.32510173982990       10.75420764549089
H            1.86672159724350        3.50292380064722       12.44501359788137
H            0.19738401834527        4.36960824916768       14.86034778676161
H            1.03429895656032        5.43597265474861       13.73724164815625
H            1.95355548973876        4.38678491665788       14.81157743405964
H            0.34098595073107        1.77037972087423       14.45841156712603
H            2.09154872734848        1.84209350374057       14.30534885533260
H            1.11365982522408        1.18214913207030       12.99154833398717
H            0.29399816614862        5.60761316089722       11.38711879430253
H           -2.31793467113782        4.87709276525806        9.96535736497835
H           -0.70455825751147        4.68006885437261        9.29733203488085
H           -1.34125461349807        6.29630216465937        9.60742063434770
H           -2.60554427696654        5.72594605444101       12.36424184962421
H           -1.55927281554666        7.10974336379121       12.09751592924961
H           -1.19660771098462        5.96889920204455       13.39164916497495
H            3.21360445347671        4.42719927667518        3.49300155793372
H            3.53495803118617        6.78840684853718        3.99664288360344
H            3.36846944583443        8.67257715958587        5.57854781096519
H            2.76332389132506        9.54732973635326        7.78759349046249
H            1.82417867980404        8.04325647923924        9.49798385196132
H            1.49494622254498        5.66428748143494        8.99189226392286
H            2.07511164498482       -2.34432581752396        0.03391414885752
H            2.87231348828857       -3.81755509638653        2.59399812026393
H            3.87427291882461       -3.65870399898505        1.15021281566803
H            2.38922173151014       -4.60207934132395        1.09846930193500
H            0.59506377276214       -2.65672229274079        2.70209919511378
H            0.11040473159413       -3.41993741909767        1.19199775333859
H            0.04220790077420       -1.66663984048506        1.36250437558560
H            4.93202619116799       -1.70283409404250        0.87221619754690
H            5.33394208748059        0.96216184570418        2.31889036765236
H            5.20799149131355        0.75457564684288        0.57079877692214
H            6.58901177445196        0.09992930513831        1.44399982624063
H            5.06004625500783       -1.05025316210323        3.86657474529531
H            6.28879197787618       -1.94567533766053        2.97961999009073
H            4.68025320767980       -2.63236990786015        3.20643534681941
