102
 energy: -18.347402058944 gnorm: 0.000758410452 xtb: 6.5.0 (97a52f5)
C           -1.09318289879297       -1.50382941817381        1.52276217997261
C           -0.21548127637934       -2.53906606962321        0.84140327057992
C           -0.98187926148528       -3.78473365701913        0.42963519918155
Si           0.81398842998241       -1.80961353170605       -0.59079051150792
C            1.93093421074749       -3.07199051633031       -1.18344380561110
C            2.75454840649978       -3.89117168052628       -1.54090206634100
C            3.71569288592269       -4.83659316054869       -1.95792508388697
C            4.92203483409486       -4.41006215911721       -2.45715927074430
C            5.89814844871560       -5.31709824134723       -2.85269966220160
C            5.68857440151972       -6.67044889595688       -2.75492277784645
C            6.69576461711735       -7.58215254710408       -3.13711903577414
C            7.52534690427904       -8.42438013859717       -3.41930994124528
Si           8.62948174702661       -9.80407471500502       -3.68671716953286
C            8.68780020013536      -10.13152194172938       -5.56576880054679
C            9.76129272096182      -11.11052998212130       -6.00624756110759
C            7.31146169479688      -10.51954422555081       -6.07685750769540
C           10.32626082926544       -9.25603972240337       -3.01092114658059
C           11.26956979840479      -10.40637299861441       -2.70728458256722
C           10.95049611751787       -8.21631187641088       -3.92457132246335
C            7.97612367174547      -11.28521167179407       -2.67214865924931
C            6.45926651169492      -11.26228034808244       -2.58729619957767
C            8.49742566868390      -12.62822052603247       -3.14981638463143
C            4.44864927935769       -7.16340932321527       -2.24855169693780
N            4.27664114078978       -8.50189121227458       -2.16376858536430
C            3.11206860216782       -8.84031919462377       -1.68655887260200
C            2.11520227705651       -7.91988894874705       -1.29595555831666
N            2.24664140537488       -6.62417200956523       -1.35859039825940
C            3.44594694290717       -6.23387413843263       -1.84663416330139
C            0.85104589451271       -8.61055331638017       -0.78362768894009
C            1.30426095281503       -9.51287244265997        0.36096119882303
C            0.84224058685180       -9.49890322927382        1.66348965225816
C            1.36723687318650      -10.39112431208033        2.57807591696219
C            2.34658489126204      -11.29125718414252        2.19762830579618
C            2.81313983689986      -11.31110954026333        0.89763204180271
C            2.29197504139321      -10.42188910105133       -0.02313821117290
C            2.67708767112194      -10.29294708310451       -1.49421567690979
C            1.38518848441764      -10.44901394962134       -2.29098364779878
C            1.13577301224038      -11.36096839263811       -3.29909847733913
C           -0.09803712896691      -11.36330151372544       -3.92020853168787
C           -1.07658343493397      -10.46225178229796       -3.54001527963667
C           -0.83397174418888       -9.54728312172725       -2.53389636987453
C            0.39795214649609       -9.53929849196624       -1.90732628325595
C           -0.23357040917449       -1.11125049876694       -2.03121353393775
C            0.53996636116777       -1.24448153143188       -3.33340758537102
C           -1.61558350471959       -1.72558102587740       -2.15350002157648
C            1.85587579562785       -0.38438633109668        0.12583087259144
C            2.71700794331821       -0.88094157485454        1.27461010732294
C            2.68949513930709        0.28698611070155       -0.95109443581388
H           -1.59877296160220       -1.92369595304171        2.39429659779921
H           -1.86312010662136       -1.13426200120241        0.84617779829401
H           -0.51445592349530       -0.64189684910853        1.85823475563422
H            0.58752676191455       -2.84023480391135        1.53032755991035
H           -1.84703741965423       -3.53221356122745       -0.18190413992235
H           -1.35293369106625       -4.33133888815901        1.29881513723291
H           -0.35411780736263       -4.46336554575610       -0.15041890015306
H            5.10883005723294       -3.35217526045752       -2.53364655797612
H            6.83962339456937       -4.96130912592341       -3.23573764137235
H            8.94040628481011       -9.12850508884303       -5.94112570891202
H            9.56524889764028      -12.10944794518585       -5.61864009550898
H           10.75107530142423      -10.81087048051219       -5.66195197474651
H            9.80173359331046      -11.18916024018000       -7.09423733881865
H            7.03949362641029      -11.51910355934103       -5.73749076096211
H            7.27664029496656      -10.52581115192658       -7.16799060872907
H            6.54403294297774       -9.83022292101838       -5.71971780216941
H           10.03102238660228       -8.77567993306047       -2.06583182469402
H           11.52762549023822      -10.95230953324264       -3.61408862368737
H           10.82789877881126      -11.11750179140245       -2.00775264981202
H           12.20206016102187      -10.04782006263901       -2.26758840378474
H           11.24870123493403       -8.66179540470567       -4.87394788658379
H           11.84248431751389       -7.77412455802704       -3.47669227743752
H           10.25008914232036       -7.40890191871934       -4.14674700567059
H            8.39473306367280      -11.06339768252911       -1.67926638505938
H            6.01366287379723      -11.43504139815750       -3.56707865358817
H            6.09091518358829      -10.30039235497208       -2.22731039585282
H            6.08510400935146      -12.03688733462391       -1.91541004296273
H            8.05340825390391      -12.89670039628627       -4.10836303767517
H            8.24847036336876      -13.42477124726795       -2.44606982558815
H            9.58063862944344      -12.62191786747352       -3.27594186909199
H            0.07665707820995       -7.89405680481960       -0.48260662232133
H            0.08008234469714       -8.79527240743619        1.95084115247741
H            1.01088641676257      -10.38535345408697        3.59540215677007
H            2.74877064312166      -11.98240713649751        2.92049179435504
H            3.57474530982957      -12.00806239007448        0.59310318020808
H            3.45421114500645      -11.00572842729084       -1.79648487522064
H            1.90343232658905      -12.05740794882749       -3.58937744159591
H           -0.29899483697496      -12.07213913822661       -4.70706205152371
H           -2.03544706932754      -10.47358650195635       -4.03237624871733
H           -1.58952454905834       -8.84246559481724       -2.23239913933475
H           -0.32854045640558       -0.04941483554020       -1.76161345357946
H            0.63417551717532       -2.29465823325990       -3.61383947590077
H            1.55000003816493       -0.84136278050830       -3.25204903812904
H            0.03663990980046       -0.72905931677275       -4.15369925530339
H           -1.54316581080018       -2.79628223970598       -2.34786681948930
H           -2.17298833562377       -1.28219927657957       -2.98080362644127
H           -2.20741037786871       -1.58510198465083       -1.24923607473244
H            1.10480755538637        0.32395990405963        0.50272908950564
H            3.40622623897696       -1.65313055570051        0.92984113036449
H            2.11667914741320       -1.31008620965436        2.07807605211046
H            3.31406614034559       -0.07356303938697        1.70283923031141
H            3.36130052665949       -0.43303202959315       -1.42056205527534
H            3.30412139003901        1.08836221612665       -0.53664795077426
H            2.06616985101979        0.72198421753091       -1.73369333207932
