91
 energy: -15.932498172273 gnorm: 0.000464467215 xtb: 6.5.0 (97a52f5)
C            1.09993999822769        0.24115593409923        0.21692165406388
C            2.50545810124131       -0.24601744532908       -0.08896498607091
C            2.67087596611892       -1.70792111961960        0.29262756882084
Si           3.03080809417065        0.03008921255908       -1.90644577323528
C            2.56394694533172       -1.38271098913540       -2.89514741012265
C            2.25011197561483       -2.32990671591461       -3.58899785210015
C            1.88360104764069       -3.41577869835787       -4.41267957866120
C            2.25205533911803       -4.69406974887849       -4.06763662666947
C            1.90893159001696       -5.78032302404190       -4.86238062546538
C            1.18926222346954       -5.61310146213001       -6.02026750361498
C            0.85564614552299       -6.72977707946242       -6.81599425188466
C            0.56050173338519       -7.67019145624099       -7.52726274901393
Si           0.11667774716277       -9.00623767213419       -8.62845289838392
C           -1.75800833667012       -8.86415373952921       -8.96041926477340
C           -2.27573974787365       -9.75533076337708      -10.07504586173938
C           -2.53914002110906       -9.04478929361167       -7.67113779534931
C            1.13078968533836       -8.71592131426116      -10.21648986502760
C            1.26742415730486       -9.94550959442285      -11.09632889595580
C            0.59616917603922       -7.51265281813079      -10.97302278182774
C            0.63101884482424      -10.66088112542484       -7.82506337361755
C            0.51052495427810      -10.59004882070414       -6.31232867956310
C           -0.09236602966822      -11.86668809762245       -8.39635031392510
C            0.78168615190660       -4.30563077285963       -6.42195467101853
N            0.07441378134763       -4.17952740004425       -7.56891541477168
C           -0.23859358694145       -2.93576943221267       -7.83255976777042
C            0.11225413283095       -1.83135590036125       -7.02335966776744
N            0.79020726244067       -1.91279687898188       -5.91596493612456
C            1.13521150483781       -3.18839712686677       -5.60475260877546
C           -0.42770825897857       -0.57991451984202       -7.66463990095015
C           -1.11766073214761       -1.05735837588442       -8.91242871790637
C           -1.79144636749540       -0.36049015663936       -9.89535709089717
C           -2.34035180524218       -1.06111577994716      -10.95569482086977
C           -2.21735727014316       -2.44046788371645      -11.03446075738155
C           -1.54482342829678       -3.14454372836573      -10.05618903357485
C           -0.99384114180153       -2.44630652799984       -8.99130801111700
C            2.16924231693136        1.59926052017962       -2.57739421361851
C            2.96211234424635        2.31153455818066       -3.65904958850898
C            0.76828244020264        1.26184248260108       -3.06041940565621
C            4.92629593748133        0.26639273569933       -1.98038457043337
C            5.67130933579841       -0.53965778113332       -0.93056335000022
C            5.44706511371218       -0.04251815079223       -3.37462676105916
H            0.86111880565597        0.11931573217296        1.27539296048837
H            0.36477336258734       -0.33293765047007       -0.34801424484778
H            0.96775618308128        1.29521578102735       -0.03049368510290
H            3.22808792936893        0.37123387819174        0.46335499814451
H            1.95917145521047       -2.32743032775191       -0.25524072817757
H            2.49187465458691       -1.86561755746723        1.35800091653809
H            3.66880977393416       -2.08150449121999        0.06244457180999
H            2.81851153703127       -4.84664518393143       -3.16449759231205
H            2.20914726098103       -6.77364579927475       -4.57436796085029
H           -1.82994475084405       -7.81326761925128       -9.27842638916194
H           -2.18371817558496      -10.80809587215996       -9.81096913984254
H           -1.73182297159303       -9.59925788003915      -11.00655554789489
H           -3.33167840842942       -9.56415906495396      -10.27529316876699
H           -2.50048573491571      -10.08155140771153       -7.33630056586623
H           -3.59118790617166       -8.78335121487543       -7.80078260406667
H           -2.13492063868227       -8.42379374943714       -6.86951223204797
H            2.11573841658067       -8.46730191295404       -9.79298545340466
H            0.29774065944895      -10.26800831225393      -11.47411065425323
H            1.70603651074944      -10.78371987005302      -10.55287816659676
H            1.90275657863786       -9.74477236464438      -11.96099936049490
H           -0.38066259881075       -7.72786298228111      -11.40690369330029
H            1.26080636014603       -7.22556238480905      -11.79013138352307
H            0.47928174615580       -6.64930103812707      -10.31529397438092
H            1.69528269405644      -10.70989745220656       -8.09944660898939
H           -0.53315916020411      -10.49480093652975       -6.01154796369177
H            1.04768297129045       -9.73076024076422       -5.90689279803264
H            0.90855636813032      -11.48872646691838       -5.83722424294728
H           -1.13985723970553      -11.86828516113011       -8.09486037075177
H            0.34654308797933      -12.79988846196431       -8.03821034633211
H           -0.06027815693323      -11.88057704209756       -9.48636704910292
H            0.38288838333729        0.11644150405486       -7.90334610254873
H           -1.12895281509899       -0.07059625421013       -6.99544474874389
H           -1.88203536935901        0.70974910327368       -9.82729146146496
H           -2.86938306199901       -0.52790694946469      -11.72873576780722
H           -2.65153133013512       -2.96857082730410      -11.86781355113163
H           -1.44077888128946       -4.21423165510367      -10.10495497455213
H            2.11652699016346        2.24304258877172       -1.68808825683748
H            3.05190615536738        1.68278514170279       -4.54548419478206
H            3.96765178941722        2.57069141285463       -3.32535432906147
H            2.46932564517195        3.23562894325215       -3.96715147028136
H            0.81417057807013        0.60789708029597       -3.93226319266255
H            0.21793841744490        2.15886565334100       -3.35049424385116
H            0.18575293903856        0.74337245084871       -2.29891852562626
H            5.04367004627613        1.33760335694059       -1.76346462960519
H            5.54046760777527       -1.60842074447885       -1.10407843426549
H            5.32502021387113       -0.31692905570188        0.07947486363117
H            6.74345212414465       -0.33636016823748       -0.96217911136740
H            5.32062026156289       -1.10204750371366       -3.60182069195170
H            6.51042676061524        0.18771675499531       -3.46427213803387
H            4.91754561143883        0.51836217257265       -4.14457540882615
