100
 energy: -18.124070188918 gnorm: 0.000683193225 xtb: 6.5.0 (97a52f5)
C            1.10744868911549        0.11749012957795        0.69283266195815
C            2.56533850182509       -0.15223712927906        0.35843447138709
C            3.48983586920290        0.60830837633080        1.29302029360272
Si           2.89757679223336       -2.03460733035168        0.31829119455806
C            1.93309027795498       -2.85724127857144        1.57646945361770
C            1.47547344615503       -3.53273505700596        2.47696682234730
C            1.07698902569594       -4.38510986470587        3.52763545264401
C            0.03045738660183       -4.05945159278907        4.35761524530541
C           -0.33942930838476       -4.89658004619679        5.40371980693263
C            0.33900425069656       -6.06752854235942        5.64815678231680
C           -0.03432678845714       -6.91716881097446        6.71051787915795
C           -0.29705598050832       -7.70526314844408        7.59753631798266
Si          -0.52991484597294       -8.98424462826514        8.82347508560660
C            0.40671375510665      -10.52145356024412        8.18653081332272
C            0.57980309763468      -11.63079895420602        9.20776718263575
C           -0.21673783819160      -11.02227336580076        6.89586627922585
C            0.23579671063224       -8.30720004089323       10.43272998655752
C           -0.22011263451317       -9.03422438936666       11.68502920841183
C            1.74822655873032       -8.24118190910883       10.31357008944770
C           -2.40189091937647       -9.27462005207179        9.06579146249305
C           -3.15998295618808       -9.03967610404821        7.77030137046447
C           -2.73320857350802      -10.62142176433060        9.68234680091503
C            1.43501594244183       -6.43301511704740        4.81721735033244
N            2.11711593252284       -7.56535045459986        5.08622597904923
C            3.12632501225879       -7.85404091986401        4.28790197606769
C            3.85236227417792       -9.09443486085206        4.63731325822696
C            3.13058822457584      -10.11660524094461        5.25281595723158
C            3.74478015158711      -11.25092545438781        5.72983318029647
C            5.11356089126492      -11.38993665534880        5.61727843347267
C            5.85442969447361      -10.39448115141062        5.02285788846456
C            5.24721426041487       -9.24817370880056        4.52598606621552
C            6.09607467866316       -8.22518972576882        3.87091177465385
O            7.06965914746735       -7.74555302350294        4.42247284284635
C            5.74199424696423       -7.88365614023332        2.47374546007134
C            6.68649464887090       -8.06698428101619        1.47205875495734
C            6.38366639766261       -7.80288192262785        0.15583435276798
C            5.12496163963869       -7.34475827885363       -0.17949325744330
C            4.18358574849867       -7.14423787450853        0.80304553251288
C            4.46142670335019       -7.40802031316758        2.14368588513580
C            3.44193146348720       -7.04138424055049        3.15173023590734
N            2.78893100107253       -5.92624478136168        2.89128094579283
C            1.79369085564466       -5.59597389696995        3.73946420652592
C            2.43122397934528       -2.72209259405108       -1.40272226560390
C            2.18226717682737       -4.21949997618912       -1.32691784998782
C            1.24965671830215       -2.00403444188302       -2.03103233285852
C            4.75254014207902       -2.36069142831637        0.65200526562666
C            5.02656948200778       -2.36059001235854        2.14706331569293
C            5.27034855864867       -3.63460345340517        0.00893402572161
H            0.86679953917672        1.17856805496153        0.60606024296582
H            0.88958321665824       -0.18592107581055        1.71771975086113
H            0.42922975701181       -0.43390193654771        0.04169038309458
H            2.77535981085756        0.14844760764926       -0.67766516233248
H            3.31891655765696        0.31062444091824        2.32786987097339
H            3.31501349365315        1.68403378363336        1.23300809135385
H            4.54093148046804        0.43319749236050        1.06123398821245
H           -0.50329003312999       -3.13979428779481        4.18848868842867
H           -1.16556469350597       -4.63008466938652        6.04074556644531
H            1.39059840151741      -10.08275926441103        7.96309955961964
H           -0.38209341234992      -12.05419135193169        9.49384641292837
H            1.06866408537334      -11.27631767099956       10.11494480593346
H            1.18509936816081      -12.44526164159327        8.80595155249579
H           -1.18911345725020      -11.47645173702111        7.08540868552465
H            0.40687801470729      -11.77969883587953        6.41755143180962
H           -0.36596250550492      -10.20917714350814        6.18321647523159
H           -0.16981647894192       -7.28430455486090       10.44488548770381
H            0.09472780258430      -10.07697344030269       11.67058996578286
H           -1.30593509187520       -9.01764258553869       11.78822642486108
H            0.20297346186574       -8.57946958752958       12.58243069854313
H            2.18130689433519       -9.24130001114943       10.29161033297123
H            2.19304683303210       -7.71103193502711       11.15768368516630
H            2.05352211067204       -7.73164303523712        9.39789872473835
H           -2.65210795401485       -8.47538788648687        9.77901169833012
H           -2.89766234047137       -9.79172159543757        7.02601877908658
H           -2.93007181362581       -8.06227561054259        7.34277573360332
H           -4.23929065196604       -9.09265891733685        7.92389613705154
H           -2.53842234160982      -11.42864916466798        8.97666312410896
H           -3.78726969869507      -10.68306937505533        9.95887644960037
H           -2.14203236371144      -10.81469592549406       10.57789293497088
H            2.06874800027750       -9.98911201870841        5.37075751186464
H            3.16043759184251      -12.02292393370143        6.20326312090415
H            5.60067664825659      -12.27365607853172        5.99608703782789
H            6.92262500048258      -10.49332887074446        4.93131207872697
H            7.66403989651083       -8.42813831120895        1.74228388602526
H            7.12585526826540       -7.95329494666754       -0.61107398273404
H            4.88404922561685       -7.13373865007394       -1.20865464340635
H            3.20998586444838       -6.76291730139359        0.54816731077125
H            3.33435165148256       -2.52008996970999       -1.99574650997241
H            1.30187716476265       -4.42981239323313       -0.71833518395505
H            3.01965272891010       -4.75116050384997       -0.87685233077914
H            2.00807134054583       -4.64658375455265       -2.31611181130059
H            0.34849005160363       -2.15682947136398       -1.43638409711321
H            1.04393985405914       -2.38286689994732       -3.03375786793796
H            1.42036393077290       -0.93018740415229       -2.11461455009310
H            5.23750944033876       -1.49550289432526        0.17868975640452
H            4.53751233123551       -3.21184784778602        2.62257461303846
H            4.65267961898643       -1.45948202718850        2.63271216436612
H            6.09481679857238       -2.43673730011667        2.35759382702677
H            4.78920301452238       -4.50643375647131        0.45209510827976
H            6.34518493467235       -3.74735033996088        0.16141831450630
H            5.08688216245029       -3.65529444959115       -1.06580591598593
