108
 energy: -19.731345991739 gnorm: 0.000406510285 xtb: 6.5.0 (97a52f5)
C           -1.20232690554489       -1.40769706332400        0.51148628264310
C            0.20547551320223       -0.85887553049965        0.66651264545259
C            1.23478592662834       -1.97073337238182        0.76091842448632
Si           0.59750355118128        0.35872889830163       -0.74639025385159
C            0.32794518041101       -0.42196306479798       -2.33055393308470
C            0.23940567703913       -0.69044452174198       -3.51271585806035
C            0.18262108400786       -0.84680753932101       -4.91290754375152
C           -0.14311605254622       -2.04970076496687       -5.48368392471230
C           -0.18661390924977       -2.19962141652487       -6.86941415043413
C            0.09778185872285       -1.15193321386097       -7.70775400776261
C            0.05657198757162       -1.32740462887982       -9.10636098693235
C            0.03811948517754       -1.44383151567976      -10.31617286124954
Si           0.05034293801171       -1.54800022539330      -12.10003544617211
C           -1.70647898316687       -1.10072786916900      -12.69853364338349
C           -1.83041262269185       -0.87638163921042      -14.19470850872813
C           -2.71393489457091       -2.11342380438270      -12.18402528325506
C            1.33844430948098       -0.26598629067950      -12.67633968065612
C            1.83472424950419       -0.48539795710217      -14.09422331709733
C            0.82220741450253        1.14393365384214      -12.44935580526331
C            0.61263001142273       -3.30126859327404      -12.60770387279460
C            0.15949320106580       -4.33259196802533      -11.58839162375168
C            0.21107738230990       -3.68362877569320      -14.02049525246377
C            0.44343316768708        0.12551090971357       -7.16183966035700
N            0.72160763187138        1.13035334270826       -7.99735575802149
C            1.03745151967349        2.29041246039257       -7.41137896595232
C            1.35506250321674        3.40586647918657       -8.22598325773201
C            1.68182685627380        4.60554625675984       -7.66935830383069
C            1.70627706741745        4.75942611687737       -6.25992901806128
C            1.40813662963202        3.70838414244824       -5.44722349617604
C            1.06779912832767        2.44543329721337       -5.99162865853834
N            0.79003544304375        1.43972860555694       -5.15688290128319
C            0.48196013758284        0.27992284119578       -5.74289785767270
C            2.09770419031944        6.17175028776259       -5.82841067890612
C            3.45256452008495        6.44544887558747       -6.48096909396498
C            4.62301499570536        6.80615468408771       -5.84008835303672
C            5.76673352198024        7.01660327987819       -6.58556956046902
C            5.74495101792584        6.86832495298432       -7.96086850977171
C            4.57927239365750        6.50749191195565       -8.60849692892313
C            3.43035494524094        6.29452960117850       -7.86990013930610
C            2.05629223131488        5.89110334651399       -8.40601659106586
C            1.08391801080994        6.95908861260182       -7.90512579882907
C            0.24076175269562        7.73901626323813       -8.67439971103053
C           -0.57594686843457        8.66665777529031       -8.05731237609984
C           -0.55323829465250        8.81685339631844       -6.68224057529200
C            0.28580174048862        8.04079012603134       -5.90630620104749
C            1.10621394112850        7.11030964789529       -6.51628110235970
C           -0.63218446666753        1.81162865297057       -0.60795348189952
C           -0.52616869479989        2.54812637554432        0.71549234830079
C           -0.56672771622079        2.74191877142118       -1.80860648858189
C            2.42622578992121        0.90322120479568       -0.61698358679836
C            3.31224873301762       -0.10188585174128       -1.33651306099959
C            2.68412270101843        2.30938892060091       -1.12676916572320
H           -1.45668643354876       -2.08832059348880        1.32633399238681
H           -1.29524379530668       -1.96347524896475       -0.42269110655582
H           -1.94974543932292       -0.61310681063609        0.49721889150870
H            0.26259130066200       -0.23284633626162        1.56791560002197
H            1.27555705341814       -2.53628428932700       -0.17090383951324
H            0.98928560939117       -2.67256262846896        1.56020183742409
H            2.23389593433267       -1.58155133241508        0.96230473968449
H           -0.36472237503353       -2.88759360604375       -4.84473114870747
H           -0.44491450688117       -3.15344729198667       -7.29736466238904
H           -1.86232082682359       -0.14402168397678      -12.17778662777564
H           -1.63879452200287       -1.79559683142389      -14.74682572281037
H           -1.12868352983360       -0.12307883815625      -14.55251517400047
H           -2.83484536696445       -0.54284631930344      -14.46207812856040
H           -2.59465174494149       -3.07119700977146      -12.69078575338443
H           -3.73937421979137       -1.78006643749027      -12.35507574656929
H           -2.59184184565964       -2.28929713664473      -11.11359281374608
H            2.16147283061595       -0.46593299186380      -11.97355386977054
H            1.02623262671393       -0.37194094532368      -14.81565890774914
H            2.25611071649748       -1.48331805134926      -14.22423452262828
H            2.60970214314863        0.23650832675937      -14.35840576672381
H            0.00203889367221        1.37250358916869      -13.13045261717908
H            1.60324365141549        1.88808895997106      -12.61672872403388
H            0.44853999505251        1.27175601594272      -11.43164333597104
H            1.70672036652240       -3.19914992428167      -12.55433991183934
H           -0.92732069078158       -4.41959978000257      -11.58223141369733
H            0.47159000833086       -4.06200025813622      -10.57809148090127
H            0.56687400253094       -5.32054119089905      -11.81132255219940
H           -0.86570482632741       -3.83848370093223      -14.08796059533719
H            0.68983389876805       -4.61399081258859      -14.33190584222593
H            0.48152077854339       -2.91219164955991      -14.74236796818420
H            1.33767160375971        3.29474214436246       -9.29428520279238
H            1.43147618379804        3.82835067587151       -4.38000454757690
H            2.11614613123122        6.29499708290386       -4.73787352364070
H            4.63161208437158        6.91839377370749       -4.76962869916904
H            6.68270140836075        7.29750887281416       -6.09148643219429
H            6.64385110068151        7.03543897349063       -8.53188165180995
H            4.55403848422771        6.39018387493903       -9.67813681705049
H            2.04058647496825        5.77755457829947       -9.49760058988730
H            0.22965755654341        7.61637966710815       -9.74368626990192
H           -1.23454798900331        9.27834921660433       -8.65236107395775
H           -1.19433072998064        9.54487803639496       -6.21213861683741
H            0.30955052853216        8.15155611402639       -4.83594355603429
H           -1.58881856750104        1.26993861317110       -0.64277126437525
H            0.44401203054894        3.03326236814537        0.81815736744353
H           -0.64378048713387        1.87284576437051        1.56428512497489
H           -1.28981385909793        3.32344155156000        0.80018628036082
H            0.31977648406224        3.37334545349908       -1.77295709090518
H           -1.43130228929628        3.40745597342528       -1.84641910685660
H           -0.53290020626046        2.18201800138107       -2.74476418364388
H            2.61526710353342        0.86248998913252        0.46534205463580
H            3.14322690032127       -0.05496785422914       -2.41325667187233
H            3.10919177843098       -1.12627118921085       -1.02407360571268
H            4.37078882388928        0.09914900068239       -1.16127841896380
H            2.40322224251572        2.39192217978093       -2.17746616306002
H            3.74161329248796        2.56945203724554       -1.05133827752535
H            2.12430330073366        3.05803182308427       -0.56671035780409
