50
 energy: -9.143434391547 gnorm: 0.000780932096 xtb: 6.5.0 (97a52f5)
C            0.89572939055043        0.12551510593893        0.01020983734934
C            2.35813308980298       -0.23598903423603        0.19343932593747
C            3.01674638168543       -0.63162215855574       -1.11514556611827
Si           3.29980222222322        1.20335885219517        1.02258722725368
C            4.76544132758711        0.72341156094653        2.14086967934586
C            5.78102278672831       -0.11787648665498        1.39213780752263
C            5.37760132682599        1.97657702637026        2.73901793513203
C            2.15169252752650        2.30353731029326        1.95107832914952
C            1.37318575115719        2.08770786566288        3.05977437981269
C            0.58684002204204        3.11890809686555        3.56834918509409
C           -0.21323723336632        2.91047703353194        4.70283508538445
N           -0.87514235076413        2.73757779381841        5.64161885601176
C            0.61097254354703        4.36005456573487        2.93227525031845
C            1.39448448879244        4.57808915342841        1.82033838999838
C            2.18279106376582        3.54510078281519        1.31034955629540
C            3.08597807111259        3.64622742545186        0.12915067491768
C            3.28952664459361        4.79177823036559       -0.64402416221657
C            4.16506390502139        4.76172560229944       -1.70364609846110
C            4.87417792753374        3.59830440542440       -2.03690923091643
N            5.77105408100998        3.57694743678155       -3.12077886996395
C            6.10886274779328        4.78990654355327       -3.86515456437404
C            6.40243295031456        2.33475010051687       -3.56571733492501
C            4.66514750112565        2.45415817604345       -1.25692783567304
C            3.79071629167300        2.48521366046594       -0.20450547939420
H            0.33079029112619       -0.70112696447043       -0.42414021672089
H            0.79467445479769        0.98270897070251       -0.65658817368635
H            0.42614004981344        0.39147702115826        0.95860891517106
H            2.45319463040943       -1.05176803691793        0.92412436875879
H            2.93845827932970        0.17749156572783       -1.84227941077705
H            2.54174938825570       -1.51193620482050       -1.55134872768948
H            4.07681597810131       -0.85214695271143       -0.98356315186125
H            4.29218489842520        0.12373601505993        2.93127031385194
H            6.20464203959468        0.44288741312100        0.55843497766339
H            5.33035291923711       -1.02509515862336        0.98716252845206
H            6.60626985829832       -0.41616970424689        2.04093732912351
H            5.80541181062936        2.60447171414022        1.95638420055654
H            6.17513557929065        1.73589616265562        3.44417447505998
H            4.63072916759230        2.57397742361346        3.26517202639701
H            1.37058910761591        1.12353484353892        3.53584430283266
H            0.00301607024036        5.15566581776865        3.32796885760597
H            1.40323752795354        5.54181965301587        1.34339752669172
H            2.75863380910040        5.69589564395755       -0.40499276349610
H            4.30500062279159        5.64706217877841       -2.29740044692602
H            6.37517052526705        5.59023935196893       -3.17766755733813
H            5.26085674007453        5.10625136494969       -4.46934486324898
H            6.95755967350947        4.61897713088636       -4.52420557259636
H            5.65252729476178        1.55506548173588       -3.68676149017540
H            7.14064368153326        2.00919889927361       -2.83520291988030
H            6.90083315396923        2.47032244113391       -4.52346426906272
H            5.19987898999175        1.54808487954184       -1.47112263618403
