64
 energy: -12.693236661936 gnorm: 0.000182233397 xtb: 6.5.0 (97a52f5)
C            1.27437035817120       -0.45185575596072       -0.21415286320481
C            2.77637047406967       -0.54744592972255       -0.01829258573719
C            3.54299903169718       -0.05470195236829       -1.23193796550800
Si           3.29759709633906        0.40708111778824        1.55069994167611
C            4.83403755429428       -0.24217605551148        2.47151579937892
C            6.02004392531803       -0.38213484300409        1.53662922935785
C            5.13035274001981        0.65694996363457        3.65732777064120
C            1.88474265423286        0.57721053855214        2.71940926208454
C            1.19647964304193       -0.34701779718515        3.46353805917699
C            0.13932506271142        0.06129103545559        4.27370213560746
C           -0.57238969543915       -0.87378154242353        5.04127760951141
N           -1.16079213671100       -1.64866174166923        5.67590372287873
C           -0.19753617981791        1.41447106330559        4.30914320120653
C            0.49487212320631        2.34313574383539        3.56363706087737
C            1.55456837254451        1.93464635186903        2.75220933948855
C            2.39668048833768        2.83077014694555        1.90880176922325
C            2.23921091983851        4.21274841606300        1.77739587795634
C            3.09720317189561        4.92929490786845        0.97564728617457
C            4.14014664516867        4.30482219539998        0.28550866854872
N            5.03697986234376        5.05491030253769       -0.53808549749042
C            5.35097720208260        6.42152728906986       -0.22756169432486
C            5.49340218271442        6.84269697610502        1.09238486804514
C            5.80523129762706        8.15205946616715        1.38232216680826
C            5.98364515347020        9.06440116159884        0.36052305181134
C            5.85057738150948        8.66128559968156       -0.95397622885338
C            5.53847645360728        7.35256343737667       -1.24624189990201
C            5.68143744734525        4.42140768380605       -1.65595185523915
C            4.97428322375528        3.56383650112366       -2.49531586550100
C            5.59973553411828        2.94237498543767       -3.55261414069349
C            6.94122276361199        3.16783956949451       -3.79323623234893
C            7.65492415499170        4.02036164423715       -2.97333489880625
C            7.03173169118895        4.64277139873464       -1.91518139852745
C            4.29168251858084        2.92388431299244        0.41575696923263
C            3.43333139095380        2.20930309906669        1.20653120922224
H            0.94666256644471       -1.02559009487783       -1.08276777645633
H            0.97506561615968        0.58550740939798       -0.36985757892666
H            0.73167475480483       -0.82162939879395        0.65739000605829
H            3.05954343830385       -1.58447939085159        0.21102153470623
H            3.27685835519037        0.97848560580942       -1.45752285757495
H            3.31740980457278       -0.65194829252410       -2.11706833655842
H            4.62114892287072       -0.08655828445358       -1.07051087098048
H            4.51555315557153       -1.23377718447855        2.82337865473290
H            6.29485590293567        0.58592440547807        1.11650823928685
H            5.79889256052977       -1.05371739755997        0.70572751263117
H            6.89445503326610       -0.77437561484730        2.05875629376607
H            5.40272382294431        1.65791436759543        3.31995641640043
H            5.95840416047809        0.27208352130959        4.25520086468727
H            4.26056409552884        0.75716598249186        4.30917813794667
H            1.47322830130945       -1.38523951470229        3.42116241562432
H           -1.01460824170729        1.72744221994995        4.93648740017455
H            0.22551850229544        3.38333594220194        3.60583614394208
H            1.44433934269775        4.71085510662479        2.30313685680659
H            2.96684775182741        5.99111122086472        0.86219013734804
H            5.36780795480145        6.12488881078276        1.88400317214149
H            5.91216204215928        8.46522066369326        2.40802284976909
H            6.22801023517444       10.08904490550201        0.58850161347180
H            5.99105252747327        9.37208306675484       -1.75185459258712
H            5.42945000410984        7.03294163660086       -2.26784700862038
H            3.92738814584522        3.40056773872890       -2.30799945455622
H            5.04192275630788        2.27940430882248       -4.19355373008861
H            7.43050860512724        2.67980359672526       -4.62027450539990
H            8.70157807593262        4.19659469439410       -3.16052503983427
H            7.58357650745061        5.30046592345166       -1.26663305827870
H            5.09041479278843        2.42278475560669       -0.09875531238711
