76
 energy: -17.293311022810 gnorm: 0.000524709921 xtb: 6.5.0 (97a52f5)
C            0.78260983654534        0.05030067771290       -0.20267317028949
C           -0.43384005160369        0.03988816267219       -0.08773742901001
C           -1.83742818424962        0.04089503811861        0.03417839325367
C           -2.55097841188057       -1.16971077406049        0.07514108463981
C           -3.91716502400170       -1.19266138045925        0.18425015138816
C           -4.62620961436754        0.01484346338590        0.25692007563326
N           -6.00614509825426        0.14433208446285        0.36385015336175
C           -6.35202291423748        1.38013989807701        0.40721225803536
S           -5.04350367822056        2.54124163266465        0.32390711424121
C           -3.91620607789053        1.22209391210319        0.21768745457371
C           -2.53407932972401        1.23488606347095        0.10745798283395
C            2.18289576056253        0.07366082519664       -0.34747946925956
C            2.78776008810912        0.94457550335169       -1.25018722273996
C            4.15440858854362        0.97401530607007       -1.39221098568237
C            4.96762409341010        0.13243863674686       -0.63672955067723
N            6.39438960765026        0.16594828047031       -0.78420438249890
C            7.05407775031710        1.42128791857168       -0.99461542595448
C            6.59208341923907        2.57731078675515       -0.36954111601129
C            7.19720069320965        3.79018643893489       -0.59598910354229
C            8.28739048295988        3.89360863852114       -1.45597639033751
C            8.88611870625090        5.14323500321361       -1.70625039823659
C            9.36821837842289        6.24189359819330       -1.93795300851093
C            9.88753467908403        7.52066198243171       -2.22166961297686
C            9.35242259951227        8.65958896779490       -1.59462362684753
C            9.82988684568208        9.91620464854144       -1.86229085495615
C           10.87520858847155       10.07792048395053       -2.78263567136980
N           11.45402660449410       11.28610441347796       -3.15395504311047
C           12.38654666788392       11.10513649464114       -4.01784527403261
S           12.67731743813903        9.44331767898411       -4.48836228247423
C           11.40981076477591        8.94390995523879       -3.40828085439095
C           10.92105594365314        7.67651662718595       -3.12929853436817
C            8.75536882805754        2.73651738322559       -2.07408299323676
C            8.15070448333975        1.52260456818053       -1.84747629903946
C            7.14194587776240       -1.05656324852423       -0.74988562783175
C            6.59960330490734       -2.23208204900865       -1.26371230357059
C            7.30174880070885       -3.41210186610393       -1.21403974665270
C            8.57317097606458       -3.46259086899427       -0.64866935288710
C            9.27159299420039       -4.68360447811791       -0.58453813282321
C            9.83036440937802       -5.76889012551077       -0.52842562011993
C           10.42238947037187       -7.04599818798998       -0.46573069888387
C           11.75892194319136       -7.20294795955419       -0.05912890372084
C           12.34489914533059       -8.44023282873349        0.01293897877079
C           11.60059176876267       -9.58010465426143       -0.32346791561916
N           12.05971738457869      -10.89197540919616       -0.29451010141373
C           11.14010564489278      -11.71130776564027       -0.65764120627520
S            9.60025739841417      -10.99113388618412       -1.07888667283256
C           10.26856633963092       -9.42495276743519       -0.72878304612286
C            9.68539926181594       -8.16918234547426       -0.80004436159998
C            9.11933310384229       -2.28607762012571       -0.14127354863082
C            8.41726328788605       -1.10463936293413       -0.19133313027291
C            4.36279628551149       -0.74064188394360        0.26465073567382
C            2.99578920872378       -0.76885526801061        0.40675538116674
H           -2.00003037148660       -2.09266946313676        0.01704284538367
H           -4.45843583546411       -2.12126531267385        0.21313971556264
H           -7.38053608504192        1.68138973787738        0.49075591528339
H           -2.00782248111880        2.17169824257729        0.07683056061058
H            2.16710853471341        1.59796780329148       -1.83915940227852
H            4.61371266539922        1.64270437096612       -2.09876127299654
H            5.75169813983052        2.50574086298733        0.29830115448060
H            6.82913379920418        4.67886747850312       -0.11243232773883
H            8.54756396448552        8.52843017872038       -0.89192073983326
H            9.41613055060998       10.78382902539179       -1.38048126114595
H           12.95281555287214       11.92330336247641       -4.42467130185272
H           11.34303612972789        6.81945360983412       -3.62204498562473
H            9.59664512638152        2.80722570946137       -2.74207362988811
H            8.50616018721217        0.63704933073260       -2.34404205844427
H            5.62011603738259       -2.20178255355824       -1.70744126760373
H            6.87190520290736       -4.31611255422319       -1.61034848811460
H           12.32377741523855       -6.32406766749494        0.20005009828995
H           13.36754251910006       -8.55508944102844        0.32455084600684
H           11.30595338579071      -12.77260252769081       -0.69916424290480
H            8.66129028112396       -8.07166982742065       -1.11179545168335
H           10.10138776205189       -2.31547150977603        0.29875784893258
H            8.83978382160171       -0.20353646791661        0.21694267081363
H            4.98504045433961       -1.38658759196607        0.85873144243548
H            2.53707417362016       -1.44543513801942        1.10729263726818
