65
 energy: -12.635606909343 gnorm: 0.000723685778 xtb: 6.5.0 (97a52f5)
C            1.66533850214724        0.00202352747454       -0.47831429875504
C            2.90252684388368        0.45894558305218        0.27233506863363
C            2.65393215813737        1.71160532165455        1.09040526362180
Si           3.54141122574345       -0.96774850825233        1.36177712231099
C            5.04958856186828       -0.59403347104376        2.47112779074498
C            4.62022235675390        0.06882646735383        3.76709267153586
C            5.84632410669188       -1.86245304496142        2.71451250961996
C            3.81945802770318       -2.46796566471502        0.32979483098896
C            4.72269207471665       -2.73923720307087       -0.66481617990209
C            4.72114303493902       -3.99183808777664       -1.27877706142111
C            5.67508921979437       -4.31065848282347       -2.33549802181355
O            5.75345374722068       -5.35758449808572       -2.92424760352101
C            3.79200419219285       -4.94515993734612       -0.86643386600992
C            2.88247418959222       -4.67165279785887        0.12979652812593
C            2.88338581166549       -3.41921327033397        0.74783864843237
C            1.95655764352499       -2.98866545779347        1.83154740193950
C            0.91104730685101       -3.74958261935424        2.36068842786310
C            0.10942783544831       -3.22339866706807        3.34652712574817
C            0.31731834725969       -1.93310359684175        3.84328521135888
N           -0.52952558879934       -1.38732702701975        4.85742012356940
C           -1.16720814802352       -2.24769829838419        5.81503795664115
C           -0.49433619377764       -3.34132964864817        6.35443918276451
C           -1.11168191873452       -4.16402395192555        7.26944768945348
C           -2.41012750153351       -3.90889729964717        7.66563274686421
C           -3.08918075094362       -2.82516333801821        7.14415032966387
C           -2.47405603520856       -2.00122198887028        6.22866905300686
C           -0.73487913631429        0.03273916961873        4.93639682109067
C           -0.86619564307533        0.80210045793917        3.78229324495131
C           -1.04344731209280        2.16498697182327        3.86182351757254
C           -1.09847360138777        2.78472409492693        5.09506950679820
C           -0.97754596490706        2.03550640305838        6.24936799108891
C           -0.79818793817688        0.67256729329894        6.17188775401859
C            1.36653114592878       -1.17879625818522        3.31660060694088
C            2.16154862034753       -1.69976753779247        2.33259165946406
H            1.31190029173398        0.76652646623457       -1.17237556597994
H            0.85381033779955       -0.21387194829289        0.21799778121757
H            1.85780413392693       -0.90888242774798       -1.04790771008870
H            3.72843765653039        0.62848601164821       -0.43299364139712
H            1.90132972017653        1.52648748563767        1.85780744891724
H            2.29262557139145        2.52988502617770        0.46520585137243
H            3.56203193374370        2.05100575481788        1.59101721437221
H            5.63864842049133        0.10896305255849        1.86514318965407
H            4.02481137032905       -0.61860226454654        4.36906136142759
H            4.01247462513877        0.95609882486367        3.58621487579775
H            5.48132164081405        0.36834644627299        4.36695858014639
H            5.24278576031769       -2.59488172978368        3.25251836622593
H            6.73913468559428       -1.66589139034902        3.31054527205339
H            6.16225505241520       -2.32394789109607        1.77735517790049
H            5.42989133881763       -1.98741717408116       -0.96586795003803
H            6.37821466898155       -3.53995016334548       -2.61916867302090
H            3.79853756961688       -5.90925089788154       -1.34508509444490
H            2.17214358196037       -5.41803823969857        0.43758999246485
H            0.73207625888363       -4.74175755756882        1.98695601053279
H           -0.70775882923956       -3.80191085955585        3.73956526905181
H            0.52072708193837       -3.52868805342794        6.05044432126583
H           -0.58041503153977       -5.00829576518022        7.67727271267713
H           -2.89260596114000       -4.55397707205113        8.38140316390407
H           -4.10205298095754       -2.62514144241865        7.45341000229296
H           -2.99949113234527       -1.15935427354758        5.81322795477917
H           -0.83202824331589        0.31335982903635        2.82437136465842
H           -1.13936485371013        2.74788251711941        2.96031557217208
H           -1.23787623751415        3.85169243116191        5.15746592341923
H           -1.02165590942573        2.51790833330154        7.21219069018176
H           -0.69443604090945        0.08487917528948        7.06722324646771
H            1.55350430001847       -0.18869683788372        3.68863753863446
