52
 energy: -9.076100626476 gnorm: 0.000886163658 xtb: 6.5.0 (97a52f5)
C            1.45262075741762       -0.30765187776898       -0.57294276907440
C            2.67556630156002        0.40209124190514       -0.02157424658597
C            2.38470574395007        1.83660344632937        0.37576908150020
Si           3.38470288456638       -0.59999519820871        1.43639480994772
C            4.88405271579610        0.14857318408090        2.35158773250131
C            4.43710986596416        1.15096566673941        3.39986097915734
C            5.74018064073540       -0.95500597668013        2.94591437611701
C            3.75997300142416       -2.31030377972898        0.87083845845639
C            4.64285174958404       -2.78764751996644       -0.05969980542682
C            4.74060650096864       -4.16374208074293       -0.29855208400761
N            5.63958535275750       -4.66774447455958       -1.25611559644498
C            6.49615781531462       -3.77868197574086       -2.04093807375674
C            5.74910651510571       -6.10186491366857       -1.52381645826758
C            3.91400427013277       -5.02077268811204        0.44230726033443
C            3.02507880239993       -4.53748814366413        1.37329874139516
C            2.93055918333801       -3.16363737665204        1.60315599423253
C            1.99277068370575       -2.50219487833713        2.55537656562145
C            1.05295644092701       -3.15560863755398        3.35262511925262
C            0.21939598703942       -2.42293091058168        4.17029305925009
C            0.29898374184251       -1.04250003330628        4.21179841262783
C           -0.64640317430075       -0.26068067254441        5.12131446392118
F           -1.91254016356629       -0.51800372083235        4.74117641014155
F           -0.44901635709180       -0.66554684085657        6.39041839862267
F           -0.38595394183973        1.05624983960062        5.00799925215093
C            1.22795464435196       -0.38545581524823        3.42757128264600
C            2.06421930579404       -1.10864649084132        2.61388484037214
H            1.06515451906693        0.19387341357856       -1.46125607634090
H            0.65472964768319       -0.32783847137946        0.17033392045457
H            1.67757200632716       -1.34176155188379       -0.83948685275315
H            3.48680740872287        0.37717617914141       -0.76241758592707
H            1.64292296643422        1.87167228317877        1.17389022848273
H            1.99066733521625        2.40972028165816       -0.46513766825817
H            3.28206341468139        2.34369474019316        0.73224045649258
H            5.43742738301995        0.66164832536422        1.55285630441503
H            3.87654103029409        0.65230293878098        4.19113211452518
H            3.79063297578805        1.91953512956079        2.97531992605213
H            5.28964725919722        1.64870190197952        3.86500074705822
H            5.17757255084623       -1.51442817301560        3.69417343044073
H            6.63001818132565       -0.55259854664620        3.43269128150953
H            6.06594619445363       -1.66439258588107        2.18376245226970
H            5.25708387872380       -2.09431291191935       -0.60308375260330
H            5.88493624873369       -3.09714830754201       -2.62919981866934
H            7.12893474670629       -4.34269629669586       -2.72255087326797
H            7.13974426440097       -3.20185397054248       -1.37991045331071
H            4.78959145483583       -6.49313919484562       -1.85554859018157
H            6.05676801122070       -6.62625844058225       -0.62152699586257
H            6.48365842157093       -6.30215362320096       -2.30074149001425
H            3.97574904590741       -6.08105721112387        0.27545862433456
H            2.39753781931944       -5.21368143557776        1.92563614941986
H            0.97856988970640       -4.22774023135774        3.32272231090585
H           -0.51150387604293       -2.91663844947566        4.78768585661815
H            1.28860795395921        0.68722483511645        3.45586014945380
