49
 energy: -8.606104742959 gnorm: 0.000610449471 xtb: 6.5.0 (97a52f5)
C            1.20933597531609       -0.39124803698275       -0.61161000864393
C            2.43536772308727        0.18329169050075        0.07396667974708
C            2.10959869312694        1.38935254470370        0.93384794489642
Si           3.28944771888906       -1.18335841000596        1.09032813294542
C            4.78251399589426       -0.65282849034008        2.15539805485748
C            4.32430957429756       -0.10554980962177        3.49474850041249
C            5.75155508736322       -1.81033807071263        2.31262128379379
C            3.73008177346645       -2.59281797318297       -0.01029798807943
C            4.59645033976852       -2.69529113673755       -1.07234184605139
C            4.73605898797792       -3.91022031689976       -1.71817206771774
C            4.00748639430774       -5.00970072174937       -1.29730066041649
C            3.13412646239048       -4.90887365421335       -0.23349306628819
C            2.98226402780319       -3.68894854518985        0.42864661512944
C            2.06364562105403       -3.43427469882696        1.57769680976614
C            1.20720289459095       -4.37228834190170        2.15951598762820
C            0.39078538653648       -4.00617446445152        3.20402957660762
C            0.38889485616514       -2.69818373826307        3.71116726557601
N           -0.45014585126193       -2.33158298069932        4.78039895367561
C           -1.40537691717899       -3.27378982736300        5.36386664028864
C           -0.39787516761375       -0.99192288970456        5.36666983531739
C            1.25062931452681       -1.76384212418914        3.12321474274650
C            2.06560741274347       -2.13169486450258        2.08652119262361
H            0.73444517306269        0.34253844773164       -1.26591256916829
H            0.46937547185621       -0.70414889194133        0.12689332676050
H            1.46119519433943       -1.26760824144561       -1.21235383284775
H            3.19382180742497        0.45091366858085       -0.67583951535796
H            1.42404334750192        1.11495674628009        1.73676808190991
H            1.63307279951151        2.17881270961092        0.34945069663664
H            3.00670099015449        1.80888436554152        1.39262293807487
H            5.24594333112826        0.14647142913987        1.55944869590847
H            3.85062897458070       -0.89026747687426        4.08638474966782
H            3.59624690391890        0.69824324360143        3.37583037679096
H            5.16265260101005        0.28288217417969        4.07629732978930
H            5.27350592038785       -2.63991673135849        2.83571476772969
H            6.63322699412834       -1.52025245809969        2.88740537274616
H            6.08947195279626       -2.18560115444781        1.34498700685176
H            5.15609765194162       -1.83076253430064       -1.38677260207888
H            5.41490904625943       -4.00030839091873       -2.55067568799113
H            4.12258167539563       -5.95327415852947       -1.80582215480798
H            2.56729810470130       -5.76441946325142        0.08850990840232
H            1.18904234665198       -5.38000030544413        1.78372777508887
H           -0.25998366552225       -4.73969917288554        3.64565696251506
H           -2.05029849721080       -3.68326278780668        4.58797902046376
H           -2.03831567269627       -2.78588645306309        6.10302073736262
H           -0.87578789779728       -4.08999420388095        5.85273010066995
H            0.62012559407047       -0.75545097367788        5.67223793044581
H           -1.03725946889670       -0.92058613595181        6.24477691275195
H           -0.73049910786747       -0.25178493296564        4.64055493498104
H            1.27599412590123       -0.74978345749806        3.47600615789532
