111
 energy: -22.604449512195 gnorm: 0.000710996788 xtb: 6.5.0 (97a52f5)
C           -0.62499314132116       -3.12875809803355       -3.84856655086566
C            0.23464505917712       -3.04645369886315       -2.58551000556030
C           -0.27506234136948       -3.99729497483506       -1.49854562704971
C            1.69724238664229       -3.28560061646672       -2.90541770607036
C            2.15396052022966       -4.54515405736827       -3.25982332864010
C            3.48232522478379       -4.78478906341013       -3.56636379593908
C            3.87170113326980       -6.18965294754782       -3.99645814856550
C            3.41691927681016       -6.45266960432336       -5.43360853180805
C            5.35702467151746       -6.51212082613370       -3.82729475805624
C            4.37071685418470       -3.70955398648141       -3.52703192756735
B            5.93069764205463       -3.83845297365843       -3.63089292826395
C            6.68941013708962       -3.43161758433311       -4.88506925673743
C            6.05773714675048       -3.40590291030138       -6.11701729314598
C            6.73385143028212       -3.00222575817519       -7.25053514287830
N            6.07697442480650       -3.00074415346731       -8.52631789753880
C            5.99783841548605       -1.91999208558623       -9.43251785129645
C            6.52814761287829       -0.63229652081540       -9.36670060899968
C            6.27682310166482        0.24019916972777      -10.39836641910828
C            5.50223409062980       -0.14543101972173      -11.49532758480532
C            4.96474123658009       -1.40950873030735      -11.57203164135427
C            5.21042898063842       -2.30515359916944      -10.53188692324311
C            4.79148638271044       -3.67117824100953      -10.30324010073513
C            4.01336351375070       -4.55496790306143      -11.05041661214121
C            3.80424307444506       -5.82449262762373      -10.56272276592416
C            4.36384552681171       -6.22943732107349       -9.34829990056740
C            5.13133342296989       -5.36844090445427       -8.60151607202729
C            5.33868224991312       -4.07321219752221       -9.07290899887157
C            8.07581851875386       -2.60600930538797       -7.12887321362991
C            8.70444423200669       -2.62750222108094       -5.91642222122599
C            8.03149211471885       -3.04067364598366       -4.75456412134622
N            8.67299599250978       -3.03701146185508       -3.50670076877424
C           10.03949583407315       -2.55986443727581       -3.43100540501550
C           11.10400326406358       -3.45569023018016       -3.40347703571029
C           12.40024805157167       -2.99718781205276       -3.32549204690575
C           12.65312487741629       -1.63966139402129       -3.27440265170325
C           11.60447298185016       -0.74034043260926       -3.30074156559962
C           10.30702205541718       -1.19514916995656       -3.37790699930642
C            8.04065069363301       -3.42766926578284       -2.31871797698909
C            8.69127231100955       -3.35883996757644       -1.07527170073385
C            8.04200908432250       -3.68673439465955        0.08260337872357
C            6.70214142277808       -4.11163844904102        0.06468844064791
N            5.99427738800411       -4.41454202352991        1.27274403048004
C            4.65915637362285       -4.04732164586517        1.56537769031498
C            3.71463487015138       -3.33346329785259        0.82583814730771
C            2.47947047442879       -3.09383238075849        1.37705261028126
C            2.16003414489719       -3.55484886683161        2.65571602664093
C            3.07743458970676       -4.25756346858515        3.40147055254664
C            4.33739600375779       -4.50212582847754        2.85616436999397
C            5.50154151495816       -5.18463430328950        3.37542459561608
C            5.73825172733817       -5.84494481845257        4.58065969135542
C            6.96427326701395       -6.43605278995146        4.77910365166524
C            7.95315763573470       -6.38482998231497        3.79404713481436
C            7.73293152756770       -5.73669667325986        2.60232639383465
C            6.50048172798714       -5.11905969520942        2.38870886692768
C            6.05928754571062       -4.19425510697743       -1.15132441154790
C            6.70840072204383       -3.85677033372335       -2.32639654585655
C            3.93412405344900       -2.42592509183790       -3.19338944797509
C            4.89914924493152       -1.25537257951702       -3.17953413039228
C            4.54326883711669       -0.23119956309497       -4.25856257639270
C            4.99874129246126       -0.61015222407276       -1.79584919329044
C            2.60012770258892       -2.23391830332217       -2.88874676104525
H           -1.67098433065571       -2.90136507522486       -3.63773402982955
H           -0.58542057018468       -4.13092968537382       -4.27565607770847
H           -0.27496930767780       -2.43331060993214       -4.61285234519529
H            0.15952099883294       -2.01800347206392       -2.19045069831798
H           -0.27443842842420       -5.02842010302229       -1.85143638368590
H           -1.29684159479203       -3.75538439917339       -1.20204952659139
H            0.35336804351122       -3.95635600056018       -0.60827014578885
H            1.45513315040259       -5.36118397526048       -3.30516846442923
H            3.31372265691134       -6.87612467056842       -3.33437059507155
H            3.90276706183589       -5.75956080720782       -6.11817726772069
H            2.34041603309690       -6.31652490387780       -5.54577916673610
H            3.66395162433823       -7.46531686656219       -5.75529632978740
H            5.96318213636311       -5.89128245173847       -4.48553879607684
H            5.57183075083115       -7.55227826469830       -4.07677093711044
H            5.69074280272318       -6.33854733528045       -2.80420162202296
H            5.02197442072881       -3.68049628493909       -6.18671315750334
H            7.11666539051960       -0.33960532362497       -8.51568435213347
H            6.68216658977079        1.23825605751774      -10.36164822762271
H            5.32153411961986        0.55892326592729      -12.29080321061608
H            4.36332733270063       -1.71327887566986      -12.41080400585809
H            3.59295715635499       -4.23836203867330      -11.98873884689476
H            3.20527158357132       -6.51971751011675      -11.12786992476933
H            4.19361669365562       -7.23339333289413       -8.99502836003968
H            5.58827826409891       -5.67891316517325       -7.67909519762313
H            8.60517514045471       -2.29813881885522       -8.01353076488380
H            9.73303011694860       -2.32394664193492       -5.83914746440164
H           10.89510420446279       -4.51056185123624       -3.44343557214348
H           13.21859683713039       -3.69842158795309       -3.30386050244709
H           13.66820634148116       -1.28232876002865       -3.21312856795676
H           11.80211049156273        0.31855719128159       -3.26038281873478
H            9.48209552962397       -0.50430483879308       -3.39817848405505
H            9.71194644671033       -3.02210132729885       -1.04256665469439
H            8.54231880399551       -3.59189303552128        1.02997722454653
H            3.95194694389733       -2.98231444843431       -0.16120118726587
H            1.74605245208651       -2.53872823306510        0.81552339978501
H            1.18223872387269       -3.35562899431841        3.06285501562402
H            2.84165499533402       -4.61484962196288        4.38851505062528
H            4.96668050470950       -5.88864309052846        5.32915718948979
H            7.16343063413397       -6.95150162721319        5.70442640891712
H            8.90203584951460       -6.86467154694785        3.97066280416430
H            8.48448362971728       -5.71558419592742        1.83394079796497
H            5.03797106998529       -4.52299613708145       -1.19038696642618
H            5.89595137773404       -1.65784654042433       -3.42401057620259
H            3.57122217275246        0.21946371483577       -4.05896680509717
H            4.49341920938022       -0.69700771922284       -5.24389061116807
H            5.27676757800146        0.57515157140997       -4.30348154420466
H            4.03579087743830       -0.20692693534893       -1.48346316308832
H            5.71595136634767        0.21182859527380       -1.79022455577530
H            5.31493221683040       -1.33246577611870       -1.04270544715297
H            2.25430379686857       -1.24798911804793       -2.63494696635017
