120
 energy: -24.775700962526 gnorm: 0.000246340561 xtb: 6.5.0 (97a52f5)
C            7.76952812437108        3.52019984492232        0.06157718329138
C            8.48688452054108        2.78044022164010        1.19316157246638
C            9.22664905843173        3.74958251124726        2.11882160109126
C            7.52900744235357        1.89427377612730        1.96527761632181
C            7.66724232176426        0.51463221606006        1.93394719649447
C            6.80179487288251       -0.32042559196607        2.61982836165087
C            6.99219125653492       -1.82398737873557        2.51747961111194
C            7.14556519580080       -2.49185824418972        3.88441554262608
C            5.88407657318466       -2.48413760972320        1.69581416688349
C            5.76794722681933        0.25844089801940        3.35301372572315
B            4.71265986521399       -0.58198146925770        4.14899576247975
C            4.88477734921010       -0.86806938559620        5.62769364088853
C            5.97072928104816       -0.39105067527632        6.35260687156909
C            6.10481143132261       -0.69929704127172        7.67887629656246
C            5.15016382717571       -1.49828939901848        8.30549763366041
C            4.07757807393072       -1.97490371755744        7.60218333287097
C            3.90860457718788       -1.67096865056317        6.23944045601815
O            2.80088087466740       -2.17216876276015        5.57892556428000
C            2.55040910295436       -1.79750505156296        4.27078657586173
C            1.36579555867409       -2.22942299003057        3.66380338323820
C            1.01706684925045       -1.83908992118588        2.38576945383670
N           -0.21976990438290       -2.28527553600175        1.81181365049731
C           -0.29896073125525       -3.02815520641433        0.61321407103530
C            0.64626027349878       -3.22391842538461       -0.39318897863712
C            0.30707959054908       -3.98384871264463       -1.48539478237600
C           -0.96200821573088       -4.55475724814637       -1.59053632451815
C           -1.89380712529119       -4.38697041297648       -0.59598480859199
C           -1.56445962505144       -3.63542758883118        0.53461528357866
C           -2.28201611412864       -3.28689549196327        1.73803882848635
C           -3.53838324821915       -3.69366272234668        2.28171515525278
C           -4.00036956205492       -3.12813443370823        3.48720025742401
C           -5.22429097949300       -3.80829029733758        3.83715497705250
C           -6.07091833196679       -3.76119380698151        4.94833480955335
C           -7.15277173901618       -4.60453852095655        5.01098417589547
C           -7.40982801959636       -5.51830934919124        3.98703502300125
C           -6.58029864641183       -5.59939814899969        2.89630926049392
C           -5.48250531826712       -4.74278553720098        2.82053945271392
N           -4.44614213077783       -4.68650636956801        1.86994900229074
C           -4.28636533069109       -5.70295017837127        0.86055832295973
C           -5.12293472193773       -5.73471270013563       -0.25016159016730
C           -4.97814124121895       -6.71783453690875       -1.20366939556886
C           -4.00456877710287       -7.68717992946293       -1.05678833229372
C           -3.17676792084644       -7.67351347278529        0.04934231815772
C           -3.31760624513481       -6.69088002317507        1.00400887863727
C           -3.22996280703034       -2.12107575676178        4.14506542488080
C           -1.96608783612004       -1.76518826751696        3.63742316448247
C           -1.47202426047130       -0.67017893364659        4.43647931074033
C           -0.35539111859262        0.16595300670898        4.33929924428412
C           -0.18760351730810        1.17582077410679        5.25432167823709
C           -1.12831794682539        1.39107762411708        6.26376408279876
C           -2.24960203207476        0.60390989328671        6.35811851990469
C           -2.42527919221039       -0.43064452084236        5.43965609457296
N           -3.51245006692991       -1.30815688930562        5.25870793146951
C           -4.76253037500750       -1.12420556733669        5.95155786882103
C           -4.87869853782389       -1.44829089439594        7.29913713518282
C           -6.07316164577757       -1.26458614230240        7.95953696666777
C           -7.16323743417948       -0.74548745562577        7.28778436493011
C           -7.05525302486973       -0.40622438657436        5.95279209555987
C           -5.86307391298886       -0.59128239135608        5.28846500687247
C           -1.46737267506252       -2.39414733312909        2.45797026657948
C            1.88894529040254       -1.00605056569361        1.66294326451395
C            3.06413756997949       -0.59511582414215        2.21716428169108
C            3.40994153293816       -0.98482012086656        3.50994583598522
C            5.60387876234636        1.64134229380197        3.39937668958857
C            4.46878360232133        2.25751499225299        4.19281504649649
C            4.99226673581739        3.15919623968469        5.31273513879978
C            3.48822944391924        3.00208041064960        3.28435716770053
C            6.48988434522230        2.44037303300240        2.70144068671874
H            8.46512485506902        4.11293819066971       -0.53421453940272
H            7.01705286628279        4.20014454395794        0.46079190160660
H            7.26028003323548        2.82426513918102       -0.60667527207818
H            9.23983686317568        2.11507696093737        0.73541298818929
H            8.53171923948533        4.44876209607721        2.58353700837012
H            9.96685034921502        4.33744371847800        1.57409828852846
H            9.74121415540252        3.21731696614524        2.92008019463100
H            8.46508577551510        0.08328388838989        1.35597637069732
H            7.94123112826969       -1.97729920976373        1.97312487443058
H            6.20846778628042       -2.45507379562605        4.43659659808941
H            7.90747743336344       -1.99589229409783        4.48707970552152
H            7.42051009259230       -3.54331567012786        3.78885674495999
H            4.93112802086887       -2.42458061053736        2.21837512990590
H            6.09017293718218       -3.54084117020594        1.51952864867252
H            5.76152144795782       -1.99644208990011        0.72782006301223
H            6.70408128035151        0.21770469401365        5.85326320171255
H            6.94774816053573       -0.32810122734845        8.23841241151943
H            5.25904739075331       -1.74076699310223        9.34996761425226
H            3.33709852017390       -2.59053084640495        8.08133834379062
H            0.69763249027388       -2.85540686589595        4.22383389354243
H            1.62291778133082       -2.78394144231612       -0.30412014621431
H            1.02665835835468       -4.13799951436443       -2.27284684586528
H           -1.21126269517799       -5.13868202446854       -2.46144091063371
H           -2.86947858819638       -4.82204300258879       -0.68367673991001
H           -5.86457055325435       -3.08106633079674        5.74998768677341
H           -7.80896424549685       -4.56658189625340        5.86508169596975
H           -8.26273567755441       -6.17317978297523        4.05961767727447
H           -6.75464467468506       -6.31217316133045        2.11013386822815
H           -5.87940532943229       -4.97622214283353       -0.35299657758734
H           -5.62616897428258       -6.73159928128439       -2.06487129329158
H           -3.89183301717554       -8.45519211683848       -1.80460294981891
H           -2.41823772400065       -8.43057444112814        0.16417175057341
H           -2.67756895285825       -6.66811535724862        1.86879593997778
H            0.35373141698888        0.02389305810817        3.54704775083374
H            0.67876224652024        1.81358685663726        5.19069252794467
H           -0.97720012759222        2.19164879230625        6.96933531282743
H           -2.99285890422476        0.77427997537620        7.11642554792723
H           -4.02327013455239       -1.85224779113160        7.81221476606797
H           -6.15756048942395       -1.52637987317806        9.00171283741553
H           -8.09785739917731       -0.60398276912614        7.80570368456758
H           -7.90534421335863        0.00051252085761        5.42969882627700
H           -5.76726132911810       -0.33391203845323        4.24800616151200
H            1.60628851542622       -0.68602493645413        0.67551349225887
H            3.73993764577345        0.03410065922183        1.66496645223104
H            3.91970975504077        1.42447337818036        4.66421742187872
H            5.52898066990226        4.01436109887978        4.90238225505999
H            5.68179201142414        2.62222147575698        5.96523046602972
H            4.17897384852107        3.54692928996717        5.92776223901864
H            3.97780777489072        3.84320218453665        2.79387815244089
H            2.64242454538998        3.39817145422007        3.84796432312165
H            3.09611929099887        2.35018199218360        2.50289773094192
H            6.36757812438945        3.50790159378914        2.72600065498231
