48
 energy: -10.529692547755 gnorm: 0.000680998425 xtb: 6.5.0 (97a52f5)
C            0.95632970940417       -0.04475889815647       -0.12022467069260
C           -0.26281282682744       -0.05209940109644       -0.03232871088652
C           -1.66903841928821       -0.05346369569324        0.05641669929698
C           -2.37796386660418       -1.26469758037578        0.14390483403893
C           -3.74618285639366       -1.29009995386131        0.22721604753152
C           -4.46300321706934       -0.08439964466614        0.22546413202821
N           -5.84508307052493        0.04193401389087        0.30803215893078
C           -6.19611289061667        1.27728991369994        0.28368746547667
S           -4.89286175078036        2.44182533823759        0.15670907159224
C           -3.75777829376473        1.12386880689026        0.13761698108491
C           -2.37343792832485        1.13876157011022        0.05447834256043
C            2.35906134223258       -0.02900582764536       -0.24096936636685
C            3.00156792289981        0.99036141903034       -0.93980617370310
C            4.37038978009031        1.00384791843670       -1.06664224742413
C            5.15036161673940       -0.00144824844452       -0.49872420595466
N            6.57677104890248        0.00951623683343       -0.63735544671392
C            7.28682914594687        1.25737003937357       -0.67749859404722
C            6.90571626668739        2.32090479218855        0.13684121559227
C            7.59025552820517        3.51485429575015        0.10009914357004
C            8.66740562607583        3.66957762245163       -0.75056815282351
C            9.05755735274353        2.62460946182008       -1.56510023749820
C            8.37480554020138        1.42954926667842       -1.52975638014115
C            7.30095845699056       -1.22476971289226       -0.75571573786627
C            6.76743432983170       -2.30009577781757       -1.46177094038043
C            7.46644738987783       -3.48013901484456       -1.58066518177762
C            8.71182627601977       -3.60880594781460       -0.99751704427353
C            9.25565390990143       -2.55140852737174       -0.29495082464676
C            8.55816555605981       -1.37050687620602       -0.17447322266318
C            4.50763344674905       -1.01868842536744        0.20406859524061
C            3.13863466250333       -1.03236137556381        0.32995013264817
H           -1.82174051397114       -2.18639836603864        0.14450757344595
H           -4.28338733545461       -2.21916445002355        0.29409149908349
H           -7.22658418615900        1.57850148018892        0.33776762949580
H           -1.85134825037620        2.07602232828000       -0.01268511443767
H            2.40824354247413        1.77046827565070       -1.38534693761216
H            4.85574932391157        1.78824104280567       -1.62012512749036
H            6.07171347912546        2.19262822481881        0.80430633660279
H            7.28582774851081        4.32897797300745        0.73718578111507
H            9.20260550975619        4.60456602697242       -0.77871423191082
H            9.89679825389015        2.74519909141626       -2.23047732262516
H            8.66774956584330        0.61548044031611       -2.16937347093799
H            5.80254397363178       -2.19060764903745       -1.92491050522851
H            7.04200939499837       -4.30367149374857       -2.13104711069948
H            9.25863560310098       -4.53269524442806       -1.09115706572425
H           10.22739629086338       -2.65128607296222        0.16023321643116
H            8.97397836167668       -0.54656371754168        0.37838374361491
H            5.10198827314449       -1.79247845927165        0.65727013627708
H            2.65167117719040       -1.82444121796353        0.87290328888082
