100
 energy: -20.165031916225 gnorm: 0.000500515338 xtb: 6.5.0 (97a52f5)
C            7.07754793070955        1.82544630287652       -0.40126334849827
C            7.69614118771353        0.87459892322649        0.62627659014629
C            8.62546966768302        1.61631091609661        1.59038544647597
C            6.62979015932255        0.09711849002612        1.37296811210964
C            6.55912223556918       -1.28373220291890        1.26438726748427
C            5.59903862165136       -2.01940811877706        1.93849175802954
C            5.56898509256812       -3.52846870009309        1.77043957808540
C            5.83738265353717       -4.26245073547529        3.08461987790229
C            4.27232776251766       -4.00945820481311        1.11794375011797
C            4.68971770687411       -1.33808466548484        2.74398417799203
B            3.56765216755872       -2.05789438250150        3.56853278108780
C            3.78349248426701       -2.41624898444214        5.02439203017179
C            4.99930730947108       -2.20090547685741        5.66524472704361
C            5.16625308049879       -2.56755886104379        6.97187931176540
C            4.11256192511221       -3.16111470141151        7.66663893737410
C            2.91038473126600       -3.37244853649693        7.05050548448453
C            2.70472384397963       -2.99937235356172        5.70878849036449
O            1.46220630003451       -3.21388178708172        5.14313171037486
C            1.20183613840060       -2.76204184856654        3.86309525975105
C           -0.10213243745159       -2.87424098390596        3.36455588263113
C           -0.45050119634821       -2.38590856798429        2.12115172867795
N           -1.81121317159010       -2.46306454731580        1.67199640693053
C           -2.22705430375540       -3.22116362530513        0.55101973245188
C           -1.48828622044893       -3.82625002755493       -0.46368743745592
C           -2.15279901391266       -4.54788249319696       -1.42685069937627
C           -3.54230088164327       -4.68454498615243       -1.39210230805552
C           -4.28494404508336       -4.10365468696596       -0.39040085081508
C           -3.62300838112042       -3.36637207533059        0.59165277795351
C           -4.09096032972474       -2.67755015086271        1.76974160553672
C           -5.38228955394337       -2.56975615141203        2.31681054524815
C           -5.56602229943061       -1.87578891977387        3.48217479261999
C           -4.46858084698562       -1.24971858307341        4.10196830334647
C           -3.16931750075007       -1.33418376589187        3.56846526132848
C           -2.31466425094011       -0.51831287544837        4.40175579691817
C           -0.97556380327917       -0.13110859415372        4.31095410137599
C           -0.44761660839105        0.69265324888607        5.27478722284398
C           -1.23671867644809        1.16307620124077        6.32638353101844
C           -2.56308631008914        0.81930315066132        6.41952589086284
C           -3.10963903205025       -0.02502168194084        5.45294129428471
N           -4.43378068520546       -0.47078988202215        5.27313013245054
C           -5.54788863625195       -0.16869256425656        6.13202039589900
C           -5.46169919105659       -0.38661385077330        7.50332885958997
C           -6.52845011276685       -0.10163788022114        8.32665842633424
C           -7.69753820814703        0.40628883379566        7.79394599509727
C           -7.79585876998007        0.62925316822471        6.43409200808393
C           -6.73033409482820        0.34479328438878        5.60892656198945
C           -2.96928570000003       -2.10143093061089        2.39439187891092
C            0.54068966701677       -1.79947909582059        1.31230008339747
C            1.82153069751272       -1.69519515258572        1.76277105243515
C            2.16676639698448       -2.16670222927599        3.02955563353317
C            4.73295813098523        0.04910638180830        2.86501248921434
C            3.72864029459720        0.78082827508285        3.73322543417173
C            4.41467804864440        1.51743651176727        4.88527438925946
C            2.85315865929679        1.72297618294832        2.90411748739746
C            5.70641221195101        0.74743931034398        2.17541753748681
H            7.84354711469185        2.33686581454536       -0.98603237012771
H            6.47675237319083        2.58980270579476        0.09140332103643
H            6.42480315739305        1.29105768095483       -1.09299367103853
H            8.30475495592559        0.13567568486798        0.07608751887327
H            8.07740877092435        2.37350034180653        2.15087623021119
H            9.43267630057429        2.12260369442374        1.05908002710169
H            9.07313559252957        0.93332248950480        2.31379548480579
H            7.26932803791230       -1.79501406322539        0.63922635127428
H            6.39501679387337       -3.77910645617550        1.08104962335993
H            5.01466306069877       -4.11418481365438        3.78171639372586
H            6.74842612332864       -3.90139631913149        3.56366808246387
H            5.93930682429862       -5.33767695050320        2.93041909756576
H            3.42602872594877       -3.85081565440738        1.78391798285821
H            4.30898847690449       -5.07591955449101        0.89084125532115
H            4.06977613474742       -3.47217711774873        0.19045059935270
H            5.80488014573038       -1.74593478212937        5.11582859357028
H            6.11023006868200       -2.40106612513056        7.46444781271156
H            4.24819526821627       -3.45121148011147        8.69571745580115
H            2.09219648647491       -3.82348562129865        7.58348735679005
H           -0.85684647454001       -3.31646652253585        3.98652233246413
H           -0.41785315181400       -3.72548615642629       -0.47828577738978
H           -1.59366761448100       -5.01829435890342       -2.21911451647505
H           -4.03825727224429       -5.25763584838620       -2.15838362660051
H           -5.35464065681309       -4.21116973503399       -0.35163549010674
H           -6.20872027755852       -3.04652302936118        1.81999391766794
H           -6.54030575781455       -1.79523944949731        3.92919980504935
H           -0.37467953213980       -0.46656059129244        3.48754433908125
H            0.58891861185768        0.98150133084382        5.21845918800450
H           -0.80068551433157        1.81204005733429        7.06825324567442
H           -3.18439440637884        1.19656693567699        7.21183870600874
H           -4.55184295526011       -0.79347059655780        7.90905900470673
H           -6.45170451666162       -0.27685621585849        9.38744849047095
H           -8.53209698200745        0.62865243064446        8.43884033239062
H           -8.70696312656260        1.02775177845894        6.01824059427463
H           -6.79472373187489        0.52863752297837        4.55063255909989
H            0.26536918705096       -1.42080699201389        0.34365152293728
H            2.58224117359467       -1.24331736200883        1.15061864041389
H            3.06884345719204        0.01436218830059        4.17431101976296
H            5.06798911892989        2.30383283052450        4.50772801511162
H            5.02786837143861        0.83930250116351        5.48010706715993
H            3.68772655123839        1.98592645766251        5.55021414940554
H            3.45555144104882        2.50544985883357        2.44304804123724
H            2.09642664364690        2.21208926789256        3.51877927018139
H            2.34180521819287        1.18805195463214        2.10287696009697
H            5.74844694017047        1.81779694914350        2.26387117775242
