89
 energy: -16.869520857417 gnorm: 0.000996115422 xtb: 6.5.0 (97a52f5)
C            1.18688106187769       -1.12576244120097       -4.10755010640522
C            1.65673015494790        0.11540933308367       -4.87054659515301
C            0.55600237241531        0.66471970740180       -5.78168903914037
C            2.17609275963481        1.18102096051964       -3.92507744361104
C            3.50198104757671        1.58514197478734       -3.97563851538041
C            4.00176290314971        2.55255515031652       -3.11967075164248
C            5.46404695395044        2.94953040108582       -3.22416498810335
C            5.63489061910086        4.40796263444329       -3.65230749608350
C            6.23863968852257        2.65143265479948       -1.93900157249870
C            3.13527007595094        3.12707293358166       -2.19285738766005
B            3.57411472546187        4.22863118503254       -1.16613820633175
C            3.34845932921518        5.69885545345477       -1.45870181564395
C            2.85845254767237        6.14098821977597       -2.68322273115372
C            2.69028050663875        7.47758780975706       -2.91871919609767
C            3.00962616159519        8.40365777935299       -1.92592556382519
C            3.48473854286737        7.98206729222984       -0.71518385792905
C            3.66354082870684        6.61288499871450       -0.43994982889996
O            4.12537935929527        6.24360057496634        0.80949977894213
C            4.22277759376636        4.90424039909074        1.13750370277377
C            4.60975857393913        4.56349330075858        2.43801541461905
C            4.70310214532861        3.25056440743710        2.86810923450938
N            5.13935448556823        2.93987818005070        4.18574079217814
C            5.43649061739656        1.59511745540024        4.59377037932593
C            4.49161970449077        0.57473990835190        4.50084940952011
C            4.79768001052611       -0.70133381137898        4.91018163342122
C            6.04671871522932       -0.97447126557819        5.42972510104862
C            6.98324808052829        0.03418084191528        5.55351645709192
C            6.69473203510467        1.32876913472720        5.15554965237649
C            7.68951167140423        2.49694241243801        5.27808844611702
C            8.78123877077488        2.18863545195093        6.32193078205002
C            8.35572375700496        2.72193048055940        3.91013042939930
C            6.90289040153892        3.76439087260307        5.65749823697854
C            7.38514425844422        4.73282023494160        6.52190712835849
C            6.62927576329737        5.84580636358396        6.83766058102447
C            5.36874095884594        6.00376036329567        6.29846405887445
C            4.87247451182167        5.05913893647127        5.43188481186168
C            5.63651189625306        3.94761037541291        5.08079343109392
C            4.43005537065016        2.22989936794287        1.93076678897513
C            4.05931808613100        2.52799077381707        0.65580092818804
C            3.95012216887901        3.85517662921799        0.24069836413866
C            1.79937787305933        2.73900210838548       -2.12034149430020
C            0.86771819723813        3.36241342707181       -1.10043904436283
C           -0.28867927894382        4.10321358384640       -1.77504404862569
C            0.36370649390240        2.32428854642087       -0.09581427059444
C            1.33947775784637        1.76839226998603       -2.99023506343084
H            0.87293825481076       -1.91936399355093       -4.78733856155691
H            0.33721279951548       -0.88790550677250       -3.46748901222083
H            1.97776879013085       -1.52128944512434       -3.46837890398875
H            2.50413733093840       -0.18509403734495       -5.51144340017099
H           -0.31424599773404        0.96677994911389       -5.19897884697377
H            0.22371823694090       -0.08239003404767       -6.50403538077694
H            0.89885388511266        1.54061243705865       -6.33458787267056
H            4.15789410886119        1.13379947287349       -4.69869884857873
H            5.89874852663907        2.32016093574933       -4.02182244206520
H            5.28341386925294        5.08087227616072       -2.87139868235261
H            5.06864396163656        4.62591942244088       -4.55957624158897
H            6.68195467165591        4.65076638482282       -3.83985108743544
H            5.90615140564376        3.30053800948771       -1.13009031259520
H            7.30889904663741        2.82021309995753       -2.06765555722490
H            6.09499970840684        1.61839524911755       -1.61731954991498
H            2.61806503370706        5.41595640919691       -3.44112640548618
H            2.31387587689921        7.81665964974597       -3.86997096696419
H            2.87810736656782        9.45658829107823       -2.11519277849866
H            3.72725315036686        8.69130472446847        0.05633141146724
H            4.85789775314336        5.36631967328927        3.10273949800114
H            3.50887332680598        0.80574021613111        4.12759321792081
H            4.06235576228563       -1.48545435236333        4.82942100295680
H            6.28912202519835       -1.97558242138682        5.74771434102983
H            7.94840146207273       -0.19716324477720        5.96711551203146
H            9.35102291947571        1.30227686849401        6.04680968085913
H            8.34287025936080        2.02439742566440        7.30583147009279
H            9.49745514172575        3.00560683751559        6.39643856450754
H            8.90485371764659        1.83533672543407        3.59444637971926
H            9.05181065797422        3.55925862710478        3.94971966353325
H            7.60678493535642        2.94246794013592        3.15014469680606
H            8.36131599896499        4.62316504798976        6.95918014321439
H            7.02104818251433        6.58788753216747        7.51437984624472
H            4.77282186867204        6.86317983089450        6.55992952011152
H            3.87559599701500        5.15363893316312        5.03722606675071
H            4.54778488703370        1.20283689456915        2.22160965502514
H            3.85557941182155        1.74450245706684       -0.05309525030449
H            1.45869331802175        4.10767511485422       -0.54131836552191
H           -0.92388122333422        3.41022110022791       -2.32667728666937
H            0.07717361976344        4.84734382069941       -2.48389244301993
H           -0.91769119062744        4.61366643614665       -1.04425087333643
H           -0.24274680575715        1.56713350093251       -0.59279939857965
H           -0.25245926012422        2.78270087316023        0.67906440471078
H            1.19252078162091        1.80989241509203        0.39250460669058
H            0.31085616872381        1.46065108260589       -2.93862773914343
