101
 energy: -20.168660039358 gnorm: 0.000557849194 xtb: 6.5.0 (97a52f5)
C           -1.53043034220945        1.19531713257133       -4.67956528812721
C           -0.55341850421321        1.47471724328376       -3.53492638868252
C           -1.23982727485865        1.36657454323625       -2.17102048887091
C            0.66308348690059        0.57361671038183       -3.61362340457359
C            0.53394899056557       -0.80300330301136       -3.50304201355291
C            1.63508145684793       -1.63665219760535       -3.56528377359510
C            1.49328724765514       -3.13823792640255       -3.43085427131925
C            0.92596551451137       -3.52661020009819       -2.06412839457083
C            0.66718458468506       -3.72694915118089       -4.57563295595145
C            2.88955395385551       -1.06706993198616       -3.74752667069399
B            4.14326505369162       -2.00207516726319       -3.80604110628350
C            4.61044385425061       -2.60689074272195       -5.11088080894042
C            4.01682564453668       -2.28432974054417       -6.32615116264460
C            4.46697814308118       -2.85237779493917       -7.48577993995058
C            5.52547624064717       -3.76010906886488       -7.44900895747789
C            6.11577669579816       -4.08675333303416       -6.25955283908285
C            5.67599000040340       -3.51960470746701       -5.04832442498140
O            6.30498510135442       -3.88894847118366       -3.87356477955079
C            5.89497887925252       -3.34617071965597       -2.66977225625454
C            6.53488859617184       -3.75760312712874       -1.49576210644031
C            6.19263497066904       -3.26398693272300       -0.24758555798603
N            6.78604599003000       -3.78029733064988        0.93935437124225
C            6.27178065150814       -3.42680229527810        2.23435535888262
C            6.20733798951445       -2.10328122544320        2.66621759159178
C            5.67743164931439       -1.79308687775489        3.89697904930580
C            5.21124514296477       -2.79853068917568        4.72058265098998
C            5.29476883244130       -4.11654497567915        4.31669142141429
C            5.83654741629535       -4.44903549940676        3.08930630868251
C            5.96583932718735       -5.90138149952938        2.62219948448485
C            5.99657557087881       -6.87522967888101        3.80823620147188
C            6.89773084194951       -6.97882872606267        4.84791868290520
C            6.69668790448456       -7.94789678481019        5.81394427186733
C            5.60770326599093       -8.80259670452533        5.74253916713968
C            4.70144453873524       -8.70498395428562        4.70542257612791
C            4.89843950969080       -7.73475558409547        3.73301272819397
C            4.10505349608679       -7.40592451582718        2.53919648043024
C            2.94353875927352       -7.97843617142907        2.03891511324361
C            2.39787174734265       -7.47389503307934        0.87447958787938
C            2.99713577307468       -6.41280430281024        0.21378002593844
C            4.15160734951249       -5.83916603154307        0.71012918084410
C            4.70400205439060       -6.33707637990147        1.87104850124440
C            7.19955297174317       -6.05571122460966        1.72807508246430
C            7.93551760407843       -7.22498903551900        1.68843102874181
C            9.05984766134463       -7.32747300265465        0.89324457860211
C            9.46704953541468       -6.25015165686320        0.13156270546085
C            8.74102265641327       -5.08193544508159        0.14876802679527
C            7.58531865332058       -4.97581661762857        0.92043820116100
C            5.13858877696020       -2.32545392415499       -0.17802391786671
C            4.49113123752878       -1.91005944253348       -1.29986187423314
C            4.85610948457904       -2.40585295437984       -2.55034537004874
C            3.05204989777475        0.30841093637189       -3.85882231176937
C            4.43608165229168        0.89591854651304       -4.03683211259686
C            4.56346841344021        1.64011535495107       -5.36725667762570
C            4.82339664609022        1.78340554342981       -2.85237250024629
C            1.92987768362047        1.11338768415607       -3.79039737327731
H           -2.37537240537586        1.88528191629451       -4.66275034656328
H           -1.93187173177927        0.18453238394944       -4.60771641102130
H           -1.03998302554375        1.28462373864864       -5.64996608337087
H           -0.19171008495888        2.51184042565588       -3.64763555780592
H           -1.63332240464821        0.36225367615657       -2.01431364331043
H           -2.07559701473008        2.06265851710278       -2.08625406976053
H           -0.54197364759799        1.57486509446279       -1.35869840920517
H           -0.44203146775545       -1.23078185574906       -3.36264180544478
H            2.51118852025684       -3.55976641712361       -3.50203766745703
H           -0.08216467115091       -3.13249523321914       -1.93712336838111
H            1.53787177501552       -3.12870179392380       -1.25327088505857
H            0.87143469094884       -4.60961535733031       -1.94674351907471
H           -0.35588944258986       -3.35225782314837       -4.54719431792204
H            0.62081164503690       -4.81539053463933       -4.51759505156248
H            1.08819591324130       -3.45918986528858       -5.54578912345378
H            3.20051707770683       -1.58339857951069       -6.33797765277445
H            4.00574568343430       -2.60071660637812       -8.42676231459169
H            5.87747555754497       -4.20637565742481       -8.36478205948889
H            6.93106512412118       -4.78756427013063       -6.22637471140171
H            7.28870755726766       -4.51290621835190       -1.58854581945438
H            6.59074920426770       -1.32706477438651        2.02677373237964
H            5.62613081473226       -0.76554410639429        4.21859497963195
H            4.78961633373412       -2.55584298663766        5.68236582546942
H            4.93870814417384       -4.90070433932452        4.96181130387804
H            7.73839223971801       -6.30869512482295        4.89475508534864
H            7.39421200313099       -8.03825470540554        6.63058420336804
H            5.46646780838199       -9.55156664743143        6.50466883123866
H            3.85304515668106       -9.36362075269183        4.64261360596277
H            2.48557846891020       -8.80255857941599        2.55715779018252
H            1.49743390891228       -7.91091083205059        0.47461533362973
H            2.56246164736551       -6.03301105829940       -0.69606556196526
H            4.62724673035491       -5.01566973210391        0.21161977515437
H            7.62423154349437       -8.06060603787024        2.29077234098225
H            9.62531247650657       -8.24492291348876        0.87579227205640
H           10.35503981037686       -6.32409191350791       -0.47501995426780
H            9.07298661725279       -4.22743415957853       -0.41514597299446
H            4.81771490309643       -1.96427436124242        0.78114157690266
H            3.68125190202515       -1.20440653731309       -1.23715588536639
H            5.13874312206965        0.04444744817798       -4.06088729347318
H            3.89384606289613        2.49958061347266       -5.39543501418379
H            4.30537791672173        0.99517255615640       -6.20833234495111
H            5.57799521506352        2.00949063863534       -5.52362438564120
H            4.16662048491109        2.65081908313981       -2.78789938427110
H            5.84609551332911        2.15163335615346       -2.94520509891598
H            4.74414610810201        1.24176694466684       -1.90876306038496
H            2.04095523650946        2.17969976591214       -3.87100853267295
