35
 energy: -7.081018340192 gnorm: 0.000561687264 xtb: 6.5.0 (97a52f5)
C            0.96943708537134        0.17541204511255        0.05794514957421
C            2.49488354827983        0.03913838361603        0.03054812658276
C            3.06783073820761       -0.12814902573345        1.44054227184975
C            2.93356146113283       -1.09357129198421       -0.88388668308281
C            2.50762899093474       -2.37945194200094       -0.58358590774176
C            2.84090636001017       -3.46351274921645       -1.36457913111618
C            3.62717897455831       -3.30367391120771       -2.50136256352684
C            3.97982959039738       -4.41105758894942       -3.33861214646661
C            4.73966044563302       -4.24156324093228       -4.44139898250908
C            5.22267993973774       -2.94659238850158       -4.81252859212216
C            6.00951746593145       -2.74636111447930       -5.94804226047315
C            6.46319272409462       -1.48665241358052       -6.28001229057463
C            6.14864627631155       -0.39699991414750       -5.49477689323778
C            5.36408016697088       -0.54542708154085       -4.34981691789018
C            5.02039933797885        0.56000362677583       -3.51203174405777
C            4.25538120652592        0.39714763763843       -2.41091780220868
C            3.74549454113447       -0.88918697127230       -2.02190512748365
C            4.08490133580889       -2.00588372218118       -2.83443239081370
C            4.89227140777912       -1.83261748326495       -4.00073269789267
H            0.65411857173950        1.03324896416767        0.65382567956760
H            0.50632373554921       -0.71028521113138        0.49226241348522
H            0.56487587045738        0.29690352036344       -0.94798860661013
H            2.89419113385243        0.98085255333381       -0.37389199025750
H            2.68223195704275       -1.03171068512889        1.91247135473417
H            2.80397835864991        0.71361379878424        2.08278166540569
H            4.15575192772966       -0.20802189180840        1.41929967446092
H            1.89484442556064       -2.53283828768765        0.28806465902902
H            2.49144324028353       -4.44761812392804       -1.10285759451424
H            3.62336416438269       -5.39120720994360       -3.07199368284341
H            4.99436228758500       -5.08417600911561       -5.06102056245746
H            6.26017584676142       -3.59131916651015       -6.56622900214102
H            7.06956874939396       -1.35231464932643       -7.16108538426332
H            6.50722412763854        0.58280158461935       -5.75993237010044
H            5.38851616102392        1.53663293269985       -3.77628726589362
H            4.03454784555085        1.26135702646144       -1.81238240441056
