118
 energy: -24.536490658753 gnorm: 0.000164985775 xtb: 6.5.0 (97a52f5)
C           -0.81699581336801       -0.67400209340690       -2.19887186894384
C            0.22922335187231       -1.10118930175938       -1.16768884717417
C            0.79437352462796       -2.49004159940168       -1.46603889710643
C            1.33792649711421       -0.08017766540650       -1.03091522033465
C            2.07422755190921        0.31496395575811       -2.12989520452527
C            3.08796611436318        1.23832948066194       -2.00158862480268
C            3.37966303974134        1.77268185547698       -0.76555533815471
C            2.67972811605836        1.39169723098914        0.36548269129273
C            3.03673217098878        2.04646848512218        1.68859686704639
C            2.07742446177292        3.19081083514405        2.01690828558708
C            3.14654194897112        1.05377932709243        2.84745863524036
C            1.64118042534357        0.45304497591009        0.23192763806345
N            0.88990861232131       -0.00230412116570        1.36690015697750
C           -0.24042238367151        0.74507448106254        1.77732662718867
O           -0.61183966463906        1.72619080247801        1.15865040730658
C           -0.94906723830780        0.31363982170020        2.98716657608201
C           -1.98935355777189        1.05656665794256        3.49297222359579
C           -2.66849612194089        0.69910024281747        4.67409297956925
N           -3.68664887292467        1.47788338174362        5.14901319747512
C           -4.27207576322581        1.13602192515733        6.28790309836127
C           -5.34700491295570        2.02307382200112        6.78627355884974
C           -5.32540976205649        2.54097683478537        8.08147422027216
C           -6.33104495348539        3.37103510217121        8.52296870694977
C           -7.37053159343337        3.70940352572544        7.67981562889132
C           -7.39815179962365        3.22083510574870        6.38893982832473
C           -6.39472697556344        2.38980263656500        5.94394297719266
C           -3.91553746146294       -0.03751821735703        7.03529070935834
C           -4.54464516774591       -0.44281364403910        8.23230313038443
C           -4.15550307737847       -1.56893775878953        8.91843899682559
C           -4.80046585269640       -1.93428671439977       10.18429689024641
O           -5.71506208162445       -1.26302342275716       10.62739574030190
N           -4.31735242220231       -3.07075964866096       10.87703802035305
C           -4.83883823203762       -3.36270574087291       12.18286991011761
C           -5.92235958401703       -4.25100081958949       12.33348951313249
C           -6.71482057797834       -4.80714299326471       11.16124254182430
C           -7.66845372202087       -3.75512395593878       10.59430707899467
C           -5.84721163352325       -5.42724727792447       10.06563006736299
C           -6.35353544552260       -4.57260466805127       13.60805600860802
C           -5.74830480052577       -4.03960298523578       14.72262399634129
C           -4.70643309906430       -3.15330552582271       14.57651009731232
C           -4.23504965297684       -2.79838898043224       13.32535452107691
C           -3.14387555774849       -1.73986088435847       13.26351935527759
C           -1.98878192970736       -2.08800617992436       12.32384745582715
C           -3.72869875456077       -0.36246723337223       12.94806867726873
C           -3.29202657853716       -3.91041487761335       10.37062973549769
O           -2.92025235679668       -4.89598336329283       10.98221368849890
C           -2.67181597961333       -3.55121035801319        9.09039720433950
C           -1.66027125720941       -4.31710152640088        8.56075431317546
C           -1.00171678625306       -3.96671634294537        7.36228565024844
C            0.06430021129633       -4.72561114596073        6.77021501546208
C            0.53725200541895       -5.96217674144691        7.43282055913751
C            0.95291472352694       -5.96518275099435        8.76447116427055
C            1.39130893669642       -7.12610627733359        9.36060163702197
C            1.43373223356682       -8.30248275850315        8.63925653571629
C            1.04336926232894       -8.31376229842940        7.31514348963048
C            0.60378219709400       -7.15506149769986        6.71548043308812
N            0.65439035260080       -4.38528233884857        5.63327378153260
C            0.25360207837446       -3.24083378849077        5.00220011199777
C            0.89145431793855       -2.81847113902504        3.81946215811801
C            0.52920116450429       -1.66993887214068        3.15644382389208
C            1.25731640277870       -1.23638028208722        1.95901142972982
O            2.16233611268040       -1.91390735325561        1.50585419970589
C           -0.53495389154780       -0.87133155759983        3.64637831063972
C           -1.19040645291357       -1.25945293323496        4.82298372222939
C           -2.24772895142714       -0.46617364455521        5.33884583788702
C           -2.88394982263495       -0.84145801436320        6.53555317210035
C           -2.47574054225790       -2.01303779147936        7.22009746922005
C           -3.10553314632302       -2.38039708366966        8.41748405287444
C           -1.42504074254919       -2.80849010217442        6.69937029024319
C           -0.78611446854239       -2.43749433405103        5.50276064817048
H           -1.65409509550673       -1.37212747350760       -2.23174116576330
H           -0.38588363335143       -0.63455395485825       -3.19842669015039
H           -1.21196001035250        0.31664181813248       -1.97084540455612
H           -0.27553537220259       -1.14876613859904       -0.18730690677881
H            1.30713500756139       -2.49982078904067       -2.42727389860665
H            0.00790501886718       -3.24442115475463       -1.50234124070563
H            1.51625154394973       -2.78852639432316       -0.70456506922357
H            1.85317263735855       -0.10713024416996       -3.09482025086927
H            3.65190047019302        1.54361116630798       -2.86758902718865
H            4.16671109077536        2.50176608622478       -0.67461872887685
H            4.04114531200925        2.48562542087347        1.55053279091933
H            1.06404718651554        2.81514699439329        2.14573948275764
H            2.04947593218393        3.92817525887220        1.21416142411760
H            2.36071463371567        3.70146863158216        2.93779821870976
H            2.16322234034586        0.68362720945407        3.13064843152564
H            3.58198709224699        1.51590794578254        3.73426918712207
H            3.75853437853517        0.19314741491231        2.57558480613646
H           -2.28635940140381        1.94944730517520        2.97568570389808
H           -4.50116375666007        2.29712194534689        8.72940825352019
H           -6.30503254774065        3.76002121966273        9.52765014145566
H           -8.15720566735660        4.35875452933762        8.02732785134430
H           -8.20582323504661        3.49066257180435        5.72848929592347
H           -6.40878779789678        2.00806252566154        4.93782506677614
H           -5.35533295549782        0.13804880256567        8.63009733653677
H           -7.33307918462665       -5.62463751579334       11.57389437469562
H           -7.11024974503785       -2.91495501108381       10.18499905830273
H           -8.32774979256142       -3.35962592417566       11.36755284994004
H           -8.28803786162487       -4.16283116768288        9.79498169382452
H           -5.33493642107536       -4.65252099919323        9.49855978345767
H           -6.44291266344030       -6.00198891128578        9.35532320599928
H           -5.08797990201999       -6.08647757987121       10.48788250671147
H           -7.18751679221046       -5.24295440029702       13.72792710715184
H           -6.10073399630921       -4.30163624690148       15.70677927644159
H           -4.25572531966437       -2.71681471632740       15.45155166252236
H           -2.71496388172173       -1.68937539481572       14.28060915286300
H           -2.29534565127005       -1.98439480479671       11.28511003816137
H           -1.65276301140260       -3.11481574337194       12.47212944885734
H           -1.13518908612612       -1.42484255784260       12.47032359189999
H           -4.18470789278255       -0.35722819362569       11.95987326735313
H           -2.96214810218285        0.41296758623326       12.96267565850451
H           -4.50440070044863       -0.08715677026874       13.66320116140182
H           -1.36940104409045       -5.20661188214102        9.08699182159384
H            0.94129311806624       -5.04257977907342        9.31887047313675
H            1.70444718872044       -7.11601041523343       10.39170640023586
H            1.77644505915895       -9.21035600357280        9.10787550219834
H            1.08280783612000       -9.23055574071523        6.75009429406136
H            0.30012143655247       -7.15672833249741        5.68302850799384
H            1.70109686724330       -3.40650007316412        3.42993810676239
