118
 energy: -23.496566934126 gnorm: 0.000838514462 xtb: 6.5.0 (97a52f5)
C            3.22720957255766       -2.07269015542910       -2.33695869848462
C            3.98836204901417       -0.87011224963747       -1.77809244975009
C            4.15318239071731        0.23099515745093       -2.82688313776862
C            3.37846999584290       -0.38758876739672       -0.47123886520392
C            3.94576745711080       -0.84800360032813        0.70320060994360
C            3.44162151666917       -0.48515569376293        1.93052304651113
C            2.34600657842661        0.34358946050717        2.00078708135362
C            1.72901711563659        0.81759937799022        0.85723362364243
C            0.54797361749288        1.75817396117705        1.04057123406351
C            0.98855921115045        3.22098402604553        0.97713183217203
C           -0.62045255293108        1.47995839918248        0.09327946421975
C            2.25102070461881        0.45510321720480       -0.40075681452747
N            1.64203487627481        0.94905573613677       -1.60340499481100
C            2.01866674921710        2.22951744030715       -2.07471008548597
O            2.86261663841513        2.89371190376778       -1.50013423898772
C            1.37391067217038        2.74052821096358       -3.28890464185823
C            1.70172009948060        3.98085758478277       -3.77224497424690
C            1.11426199284991        4.51196104055642       -4.93384728054125
N            1.47756894363307        5.75712248255005       -5.35669568133524
C            0.89676701053068        6.24421540275089       -6.43934795300553
C            1.27407637371301        7.61669637586264       -6.84708813930227
C            0.31143803990181        8.60288072917475       -7.06402495035353
C            0.68139243426928        9.87718131614503       -7.43047214457077
C            2.01659635486066       10.19577718542788       -7.57722096671032
C            2.98332696241552        9.23704308762438       -7.34871114751269
C            2.61738320863006        7.96120464506788       -6.98267599055666
C           -0.06055242624048        5.50761853202643       -7.21382518455755
C           -0.62159064695157        5.99781609406886       -8.40682956100851
C           -1.53508447900782        5.27297286108220       -9.12529051753580
C           -2.09130660838349        5.82722292788143      -10.36452026504691
O           -1.75272611725919        6.93028286819750      -10.75430729578263
N           -3.02284644405682        5.04867566022112      -11.08757985751909
C           -3.56197036922717        5.55841882809598      -12.31697558315807
C           -2.92212581344601        5.27433210654183      -13.54028637340030
C           -1.56447252456907        4.59570161037932      -13.63628254601135
C           -0.43631042984944        5.57342550699748      -13.30438899150161
C           -1.45315611489304        3.30962710172915      -12.81626996468335
C           -3.50615327250673        5.70489316712187      -14.71806400622230
C           -4.69169697858931        6.40279062082396      -14.71364256284911
C           -5.30411048152482        6.70256022723877      -13.51873273693607
C           -4.76222008381035        6.29702849434877      -12.31221030692257
C           -5.45415637137201        6.75957193677348      -11.03949626780409
C           -5.67237950306898        5.64750257412475      -10.01270898042938
C           -4.73094819844007        7.95880729195309      -10.42495894509382
C           -3.44837737908747        3.76996125119016      -10.65301401211309
O           -4.26087731883884        3.12538454124726      -11.29163940278715
C           -2.88137281231005        3.23435005349472       -9.41023660100241
C           -3.25687518734920        1.99888959937510       -8.96212386216370
C           -2.73769101483897        1.41196346069092       -7.78338405700887
N           -3.14458620503610        0.15907637421431       -7.40264540564206
C           -4.13419597854536       -0.70960143031723       -7.89570487622047
C           -4.05679080263355       -2.09280080102194       -7.66888647657146
C           -5.02430815828146       -2.90217286543989       -8.13910440748828
C           -6.05052628268035       -2.40943629349906       -8.80855681032387
C           -6.15068067351274       -1.11052808959282       -9.02973615786566
C           -5.23135340707289       -0.27420802256542       -8.59126762769242
C          -13.99783229545786       -3.22163791957946       -8.94223891930652
C           -1.44298031608426        0.41819817722342       -5.30535707329985
C           -0.86539333675431       -0.07395890290599       -4.17535447829734
C            0.06581690863428        0.65964315288115       -3.48747778493707
C            0.68459573703525        0.14065019232016       -2.26227639401505
O            0.36867006989356       -0.95011833330114       -1.82242167580344
C            0.41732564380586        1.94546478660854       -3.96819684079313
C           -0.19451885503401        2.43888758581614       -5.13798363748264
C            0.16033135328191        3.72649703047749       -5.61114202920477
C           -0.43801228450309        4.22778462386458       -6.77857919232641
C           -1.38852440603172        3.44974034081195       -7.49513634934620
C           -1.93821792320596        3.98800899748375       -8.67565947275255
C           -1.76955891111400        2.15086504160513       -7.03171486767419
C           -1.15663207489241        1.64936662379231       -5.83419523443618
H            2.20666321672911       -1.79455632464755       -2.59279876911021
H            3.16877407974838       -2.87996457801234       -1.60629966029110
H            3.69951596078320       -2.46368544491756       -3.23871726426677
H            5.00718724120039       -1.21556040512254       -1.52472863849084
H            3.18813523399648        0.51073893480658       -3.24455292589995
H            4.77911248146540       -0.09431452699986       -3.65881096296360
H            4.59951808621801        1.12672602449004       -2.39336956389346
H            4.79806348969248       -1.50420089553715        0.65345577492364
H            3.90392222311261       -0.84795072597102        2.83387397945188
H            1.96172947662696        0.63370151249483        2.96394293525016
H            0.17224380761795        1.57179436950377        2.06312794038896
H            1.38359476832419        3.45913498195480       -0.00864960277980
H            1.77734737213547        3.42962130076366        1.70046722921724
H            0.15827403444275        3.89990022161090        1.17408052279305
H           -0.37896937964154        1.80036100303580       -0.91819477780425
H           -1.52006769947360        2.01951741634011        0.39217463598498
H           -0.85635893924774        0.41575287242067        0.05730922821640
H            2.43153962084802        4.56669038934072       -3.24533044112416
H           -0.72797682446662        8.35949135921693       -6.92544458477189
H           -0.07268052002063       10.62820638358470       -7.60006714655039
H            2.30429486899429       11.19378492352979       -7.86461029175687
H            4.02587429419644        9.48788628727703       -7.45617125826006
H            3.36622964051650        7.21004363659744       -6.80042874558443
H           -0.32418716808151        6.95864884431776       -8.78367860341982
H           -1.44641112576517        4.30380822402623      -14.69542657634810
H           -0.51161390167029        5.90826978234347      -12.27136049391413
H           -0.48239900708497        6.46127571360778      -13.93572992510651
H            0.54454345210244        5.11482701563926      -13.43347645834282
H           -1.38483115878582        3.53718552862933      -11.75438569980907
H           -0.56033723333203        2.73998598777546      -13.07746525610226
H           -2.32315443856916        2.66890745844107      -12.96476658600048
H           -3.01597417965991        5.49901103554323      -15.65436937128514
H           -5.13002530266578        6.72914111058215      -15.64252933009414
H           -6.21669379189003        7.27396543072834      -13.52024364180999
H           -6.45776379987414        7.10338171442446      -11.34850362833356
H           -4.73323964983662        5.37952135597483       -9.53278674094360
H           -6.07426817077443        4.74885708732961      -10.48218139359133
H           -6.35731268123360        5.95640435273145       -9.22196569894189
H           -3.72635768802877        7.68028107508629      -10.11162198629428
H           -5.25729182653605        8.34108148481919       -9.54977432933740
H           -4.63105301543540        8.77244658866558      -11.14401470592519
H           -3.97234879632760        1.45381061344871       -9.54923941661928
H           -3.22489243513025       -2.50528981343078       -7.12446350505460
H            3.23212324789108       -0.77224007741518      -14.90436290657737
H           -4.54536329909651       -1.21966907228306      -18.40454586390756
H          -13.25466575653412       -2.48529499270753      -10.52000833311309
H          -14.70286073325689       -3.64043105459658       -7.24582565134786
H           -1.14354333146682       -1.04788794218762       -3.81405163722769
