107
 energy: -21.898140613192 gnorm: 0.000441757238 xtb: 6.5.0 (97a52f5)
C            1.11434616501039       -0.34381807553474        0.11731417577441
C            2.62645986566746       -0.33417320710234       -0.10776357087707
C            3.39205907569986       -0.86141325523912        1.10696279729744
C            2.99703853926531       -1.07925090497537       -1.37218476987157
C            2.82221123020020       -2.44545527571221       -1.46425985277036
C            3.15590190843797       -3.12020800414172       -2.61769566332642
C            3.66836682771948       -2.43052274731184       -3.69508416018021
C            3.84746973637270       -1.05927015621494       -3.65091645973716
C            4.45362559425846       -0.36765541082557       -4.85868627772069
C            3.70419936449869        0.90204430897086       -5.26646271780277
C            5.94403862189453       -0.09880932033855       -4.64998015118177
C            3.50814925686089       -0.37222820570579       -2.47242568921895
N            3.63824065289302        1.05318895984027       -2.36467253608042
C            4.85681448846446        1.59279850697047       -1.88994314454271
O            5.80157112439250        0.87191870449436       -1.61976374749736
C            4.95399842394703        3.04705726648482       -1.72959762002009
C            6.14034908858633        3.63374807945892       -1.32430677887837
C            6.24833693966941        4.99845910636319       -1.16704062539613
C            5.16683211988046        5.84651590381412       -1.40801745847043
C            5.24590531706902        7.29227654803429       -1.25285268449061
C            6.40846306219700        7.95276325545146       -0.85349519727035
C            6.44449669115867        9.32381808430927       -0.71723543149074
C            5.32980991336408       10.10381666479667       -0.97348473573940
C            5.38591157064446       11.56070123790742       -0.81929820924632
O            6.42341360636542       12.11386891897789       -0.49856629516628
N            4.20397979992533       12.30283106169365       -1.05163735115810
C            4.25560348814319       13.73332564786683       -0.94502667837151
C            4.55248981563843       14.47752017028823       -2.09810765622853
C            4.81396311118099       13.76111978762345       -3.40562950993124
C            3.66646391966103       13.97923337177478       -4.39190677317297
C            6.16800997239042       14.14351641707178       -4.00594141914710
C            4.57423630232360       15.85615001955039       -2.03006011055237
C            4.32380554849300       16.50450514819347       -0.84094891212327
C            4.04251539244216       15.77649581876975        0.29477945684764
C            3.99459502246044       14.39393968743606        0.26802232736776
C            3.70866512620735       13.65274417293679        1.56177001706725
C            2.64072764742069       12.56794013623354        1.41047014080897
C            4.99234378713301       13.09652924489806        2.17790530834777
C            3.01649407456282       11.71369941978442       -1.54668325901219
O            2.04968814875871       12.39238850677522       -1.84509933882249
C            2.97442753849500       10.25444484421861       -1.67823847213694
C            1.82198934998859        9.63457907783035       -2.07172411415819
C            1.73242587640231        8.22952125601497       -2.19206684684636
C            0.53612857551895        7.55391582115819       -2.59093399156460
C           -0.70006556640095        8.33094585635830       -2.83945256441349
C           -1.39171167347329        8.18022692934815       -4.03955125123143
C           -2.54914225577502        8.88663046909739       -4.27821350717200
C           -3.04305036427175        9.74978856395938       -3.32063668800950
C           -2.38001214578359        9.89911691819974       -2.11901013563656
C           -1.22299362851117        9.19390571063148       -1.87622731182366
N            0.46885180839705        6.24156631921875       -2.75572442864228
C            1.58169472848587        5.50072814046094       -2.50017992674053
C            1.52332850399147        4.09920540822149       -2.64878960024082
C            2.59931197093421        3.29346442602881       -2.40328731010110
C            2.48304959445408        1.84279568470377       -2.57451730452856
O            1.42011775737422        1.34029817357707       -2.89459950742205
C            3.83805481729969        3.86142334746830       -1.98495948401282
C            3.94184100102074        5.26071981673706       -1.82328144460920
C            2.79957408687030        6.07121113541003       -2.08332071944752
C            2.87729320749981        7.46471598673233       -1.92874366251271
C            4.09468409676154        8.07803511968618       -1.51975048457025
C            4.13838647745775        9.48350699437423       -1.38473496824464
H            0.83460038512631        0.24835815367621        0.98919950499051
H            0.75367062827440       -1.35921538513741        0.27812981113212
H            0.58858221077022        0.05936228981208       -0.74928540867607
H            2.93345208010973        0.71493640855134       -0.25942902375487
H            3.11690748180755       -1.89302872738892        1.32293959959514
H            3.18036116181561       -0.27216514262010        1.99982678090532
H            4.46852404814531       -0.83662457551572        0.93346404946409
H            2.41931998559379       -2.98490055321202       -0.62470098814949
H            3.01846830181565       -4.18738799939873       -2.67658795798650
H            3.93785943202110       -2.96627511118323       -4.58923561075879
H            4.35858736920604       -1.07832796423787       -5.69915895058845
H            3.87343670327282        1.69667311211987       -4.54237568063605
H            2.62908380415429        0.72746137774035       -5.31957334875691
H            4.03849166592703        1.27448349397239       -6.23554468554586
H            6.09566304027998        0.58105264116985       -3.81342416708548
H            6.39870003593948        0.35374074720040       -5.53175627932018
H            6.48496873741820       -1.01780196182951       -4.42229740163356
H            6.98559230268440        2.99554988610681       -1.13201554777973
H            7.18904984388538        5.41082286365908       -0.85131697650321
H            7.29801201397517        7.38686776306448       -0.64591450470819
H            7.35060382637698        9.81525407528190       -0.40711936683842
H            4.85161953521542       12.68347359332954       -3.17090350193786
H            3.58891559036815       15.03040234541107       -4.66769941697073
H            2.71318089707513       13.68256171125355       -3.95224056217802
H            3.81006217650415       13.40602720177638       -5.30834820383837
H            6.18764967874866       15.19627182066174       -4.28501543176458
H            6.38547693617162       13.56329089294814       -4.90333948529684
H            6.97533726910348       13.97649008734950       -3.29197035939220
H            4.78528322612758       16.42666140282192       -2.91777575302921
H            4.34824599277265       17.58100936886071       -0.79866352522942
H            3.85674686424649       16.29047793270316        1.22236241904359
H            3.30323405663564       14.40436840410124        2.26258517660044
H            3.02788245472878       11.72545367977505        0.84080591398477
H            1.76305649992985       12.94625658744823        0.88527589075266
H            2.31931846275635       12.18037135257957        2.37797865773488
H            5.44206839374971       12.35508051759743        1.51995370147114
H            4.80192122082135       12.61539117680672        3.13779301996733
H            5.73151235912996       13.88309713478859        2.33228242418431
H            0.96802222533310       10.24438463972895       -2.30030671154181
H           -1.00342818856991        7.50298299489143       -4.78033485852761
H           -3.07056351106516        8.76512455234715       -5.21345067619866
H           -3.94853703460318       10.30289362999373       -3.50892528947156
H           -2.77110006368710       10.56534782135493       -1.36763893282775
H           -0.71753332431229        9.29049600975152       -0.93071592557774
H            0.60006912629121        3.65036415690278       -2.96417813119561
