76
 energy: -17.271369526162 gnorm: 0.000842083612 xtb: 6.5.0 (97a52f5)
C            3.49353892522727        0.21262969467821       -0.01406707945082
C            2.43797744872439        0.82783029010663       -0.02303309298335
C            1.21483861736440        1.53298376028707       -0.01681522892581
C            1.19161818000979        2.92387548557589       -0.02459742705559
C           -0.00647041162552        3.60665143728336       -0.01474537892158
C           -1.19891307099970        2.91420254132902        0.00310390638056
C           -1.21052181559700        1.52316072294283        0.01147149305906
C           -2.42706525154066        0.80680731676251        0.02392359284685
C           -3.47456992339267        0.17793277287400        0.01851779948833
C           -4.67402674114447       -0.56308864718591       -0.01033234316833
C           -4.85129115158594       -1.67050467100082        0.81550747816644
C           -6.01325397735538       -2.40579312579332        0.76838267077354
C           -7.03687311378261       -2.05927207224010       -0.10704821917785
N           -8.23607249173507       -2.84840181288247       -0.18355083816547
C           -8.82234806697384       -3.35553026837383       -1.36353937357541
C           -8.43351314433639       -3.24423178105313       -2.69848798406114
C           -9.19430230095897       -3.85858103219519       -3.66300885232197
C          -10.33710787456498       -4.58816944529006       -3.32326063925843
C          -10.72945623199769       -4.71632051618994       -2.01242793247331
C           -9.96524223757837       -4.09860364440861       -1.02094962168866
C          -10.09091146446958       -4.05361412699881        0.41671090250706
C          -11.02398887542287       -4.60573979609552        1.29588703028609
C          -10.87811243514627       -4.37464807512355        2.64268219399864
C           -9.82035081040718       -3.60059129404677        3.12834853443430
C           -8.89345490149989       -3.05262433859656        2.27547964506302
C           -9.02110632628824       -3.28393881831647        0.90594132007395
C           -6.86676468900178       -0.94829865709341       -0.92602464514109
C           -5.70504000031688       -0.21306149799516       -0.87861455121721
C            0.00497739182243        0.84875792664687        0.00141404763835
C            4.71051518806184       -0.49895057539578        0.02114822954949
C            4.91494328819044       -1.61138893276874       -0.79159903664532
C            6.09863017227909       -2.31131554580130       -0.74388820607821
C            7.11746142364586       -1.92257841423299        0.11930558494039
N            8.34929837030520       -2.66099392710360        0.18383684685543
C            8.98554808718523       -3.11498292695504        1.35941965840981
C            8.60643766382366       -3.02071121069951        2.69842735323335
C            9.42552247885428       -3.56391422232892        3.65790557441522
C           10.61798013917873       -4.20436664199666        3.30907232089793
C           11.00269022406293       -4.31381339658262        1.99427215826559
C           10.17912410278856       -3.76871045426913        1.00775548742470
C           10.28596767138618       -3.72117802008761       -0.43139285508835
C           11.25363762202014       -4.19689081797370       -1.31782929695556
C           11.07885490595364       -3.97979818170130       -2.66351830104819
C            9.95800121951905       -3.29456448669799       -3.14106696933076
C            8.99726647100359       -2.82143615140326       -2.28088786383571
C            9.15418318262745       -3.03996207231460       -0.91232011289867
C            6.91846135953623       -0.80881065609321        0.92788219569798
C            5.73533895043392       -0.10880216827760        0.87954657184450
H            2.12425780637678        3.46177857490984       -0.03787018608135
H           -0.01089499536316        4.68436542143575       -0.02140097253122
H           -2.13598960091413        3.44445502888225        0.00948664990203
H           -4.05963965908127       -1.94948906263024        1.48979748627288
H           -6.13544786571134       -3.27229303059570        1.39431572286379
H           -7.54703720910047       -2.69188159158714       -2.95337756607844
H           -8.90529416547701       -3.77865816417077       -4.69813913846427
H          -10.91603500850008       -5.05937418257310       -4.10050038102870
H          -11.60424589568218       -5.28090907635393       -1.74195296634049
H          -11.83661311933606       -5.19784240523521        0.91346601579859
H          -11.59007438417231       -4.79378281389500        3.33460853170267
H           -9.73219830156774       -3.43027568517002        4.18884249036069
H           -8.08427210470608       -2.44733179635144        2.64263448639770
H           -7.66238436083535       -0.66776574761958       -1.59372942983249
H           -5.57774021605929        0.64233773638314       -1.51996892326360
H            0.00940426153856       -0.22677025035454        0.00733056634483
H            4.12831539281035       -1.92078367061656       -1.45845804991011
H            6.24367780638099       -3.17985939156097       -1.36206707446960
H            7.68303473892416       -2.53611707727263        2.96015474179724
H            9.14451804011514       -3.49657607548988        4.69613706618985
H           11.24267045503473       -4.61991954627461        4.08261943299796
H           11.91691576436664       -4.80833357345402        1.71709911288023
H           12.11576833378898       -4.71879670356241       -0.94158030889685
H           11.81719136192742       -4.34021367550868       -3.36085384107891
H            9.84789775426403       -3.13319251293515       -4.20091417018068
H            8.13895887173000       -2.28387811357034       -2.64176558525895
H            7.70992308409335       -0.49592969011668        1.58609565024604
H            5.58773743887428        0.75143755035916        1.50997389286041
