96
 energy: -18.932386056649 gnorm: 0.000421167622 xtb: 6.5.0 (97a52f5)
C            2.27560255195741       -1.84495392450515       -1.14382180348421
C            3.14208396658596       -0.69871086766325       -0.61759944582300
C            3.50445361921828       -0.88202967375530        0.85658102825805
C            4.38270613608517       -0.48907220516756       -1.45983037289991
C            5.25836200068110       -1.52847070859512       -1.70262831710755
C            6.39404370267291       -1.32839526939297       -2.45528263885879
C            6.66981737917416       -0.07934813959876       -2.96725450761077
C            5.82963365542841        0.99468134129403       -2.73207526270550
C            6.17891240310178        2.33780023005977       -3.34662498440140
C            5.37126373867893        2.59027074396771       -4.62022531023594
C            6.05617439476534        3.50020768850859       -2.35924688441587
C            4.66763321396235        0.78705255888236       -1.97044200221391
N            3.76055237174052        1.85675441438225       -1.66612057466860
C            3.85934527914587        2.46980720790566       -0.39622329796647
O            4.74714460747042        2.16859579175325        0.38395564781416
C            2.86416718874307        3.47815044460242       -0.03734561148949
C            2.91538472413658        4.09697872274761        1.19396847480593
C            1.97742871420516        5.04849772749346        1.56813098057122
Cl           1.82723504476041        5.39412493434627        3.25000685849183
C            0.99353651766957        5.48662573872513        0.65466133800934
C            0.10518583034122        6.60062188454775        0.90553509479013
C            0.40297113741198        7.65590436327196        1.79726906427921
Cl           2.03938546709617        8.07077502910482        2.14753286207105
C           -0.57820368637996        8.56262595571491        2.16980551236259
C           -1.84106506009922        8.52656411354285        1.61614548749675
C           -2.12868967905049        7.58440525969360        0.60194630260122
C           -3.40006862836542        7.56045616969238       -0.01499705238979
C           -3.66781937538225        6.61117011824143       -0.97880343761641
C           -2.70722496058962        5.69481396583869       -1.38297551464967
Cl          -3.25915236950697        4.27503694551255       -2.18972683269168
C           -1.38562550796959        5.77316660741762       -0.89098353879092
C           -0.28905288297880        4.97929289489558       -1.40262846205304
C           -0.26074945597684        4.42239699396111       -2.70059895788159
Cl          -1.15807224268176        5.14675019264376       -3.98207435342738
C            0.69778431888258        3.47912221306937       -3.04371792899746
C            1.71208645872990        3.13247539652054       -2.17558736149731
C            1.81112783941666        3.78793424659783       -0.92732842627874
C            0.83866819668620        4.75609815791461       -0.55915628219558
C            2.69674139690016        2.12119886855852       -2.55703231245743
O            2.59391867861815        1.52333786460415       -3.61490393141603
C           -1.13363046518413        6.65257863851015        0.20201309328873
C           -4.44284681873144        8.49080856013063        0.41372990558429
O           -5.53679702454169        8.49412142685033       -0.12512806489148
N           -4.14752145729841        9.37212921314695        1.47917763812361
C           -5.13182661948531       10.31564503984619        1.88359807551430
C           -5.24536924849430       11.50955287151919        1.15718663859329
C           -4.30256082590033       11.77878152807743        0.00395556743547
C           -5.05768204419898       12.07434135103726       -1.29341012121991
C           -3.30421683314296       12.88226168437405        0.35564874060378
C           -6.19372824651594       12.44141602428037        1.52991177947178
C           -7.02927679964740       12.20382827804310        2.59868869944419
C           -6.91813667781385       11.03080606403274        3.31298217330912
C           -5.98073681568980       10.07058251925436        2.97475523566500
C           -5.87036105444591        8.82765974436059        3.83948283383651
C           -5.79837084059007        7.53248815860891        3.02833753209320
C           -4.70573968090743        8.94197633858171        4.82412663618107
C           -2.86257009211154        9.47993810985706        2.04696119682817
O           -2.60405883376764       10.33489787617425        2.87752141079067
H            1.34284822095967       -1.92890569263217       -0.58525100166630
H            2.79424008240537       -2.79869818633710       -1.05700812430412
H            2.02708753442882       -1.69847250129244       -2.19547892946041
H            2.54618708303303        0.22624560603049       -0.70227253875443
H            4.09314283982645       -1.78746423096727        0.99947413148002
H            2.61489288865580       -0.96249657882466        1.48190784924435
H            4.09904628122943       -0.04196869858531        1.21844680691532
H            5.05100519254219       -2.50226243521860       -1.29454282518246
H            7.06696063873403       -2.14872092247975       -2.64351639723031
H            7.55539306912767        0.06688874350393       -3.56167127414223
H            7.24323855142377        2.27559316389638       -3.63567703649407
H            4.30801694171214        2.64474506011548       -4.39361611014785
H            5.50695428770308        1.78434082702683       -5.34193360822048
H            5.65709285653068        3.52732277811468       -5.09883777822898
H            5.01106572386398        3.70449112014851       -2.13500073707149
H            6.48441125758169        4.41863767924091       -2.76228163302016
H            6.55708177949789        3.27368307438318       -1.41739755857975
H            3.67646533616157        3.80338629444300        1.89548062919534
H           -0.34115953838085        9.33210058509327        2.88352194398355
H           -4.65958277542040        6.55073785550245       -1.39150928886855
H            0.66974368792255        3.03117777431901       -4.02152252322831
H           -3.72791863651731       10.85038050919367       -0.15552108612030
H           -5.63202842494482       12.99613350993068       -1.20952994985407
H           -5.75530194731570       11.27033390783920       -1.53152783023551
H           -4.37463715524043       12.18965563353832       -2.13560281544558
H           -3.81771894339805       13.82845134696885        0.52283877676649
H           -2.57838658515267       13.03642066482264       -0.44325472649816
H           -2.75812098369164       12.63776956174346        1.26789501381090
H           -6.27295774235923       13.36455982648775        0.98275083558161
H           -7.76546057618863       12.93847349291655        2.88062930308756
H           -7.56555738464925       10.85909404750775        4.15582508436536
H           -6.80187849391897        8.78183868322811        4.43135383689296
H           -4.83608498135613        7.44636009240141        2.52777978636296
H           -6.57341801307732        7.50190148421153        2.26187281756691
H           -5.90979508649462        6.65227534182326        3.66255426535283
H           -3.75906656797766        9.00889566479239        4.29091280587914
H           -4.65291960644661        8.07759547444244        5.48663580037177
H           -4.79418711743542        9.83765201848740        5.43957186984916
