122
 energy: -24.946844480594 gnorm: 0.000252635168 xtb: 6.5.0 (97a52f5)
C            3.87230912565497        1.22741765379609        1.30114977312702
C            3.01732729433793        2.08952276276930        2.23015924616434
C            2.95585929514942        3.54065987059057        1.75117980934972
C            1.65472670138343        1.45762779622129        2.47556846071583
C            1.51196347540011        0.68736441292480        3.61531866137135
C            0.32787138883259        0.04909026023745        3.90344645869467
C           -0.73791524650602        0.16460865246758        3.04117082730410
C           -0.64399911570797        0.90710129927369        1.87817160411040
C           -1.88586942459524        1.00107565964137        1.00603414462388
C           -2.69192481430596        2.26072067278234        1.32217203477395
C           -1.60133891997033        0.87677423222534       -0.49134141446521
C            0.56459384463164        1.57187511249403        1.58721250635221
N            0.68770745199686        2.36376486856456        0.39555819142311
C            1.28630683074836        1.78270278415359       -0.74797626298408
O            1.58134681884725        0.59858005384663       -0.77185474998972
C            1.55410342206461        2.64191355345019       -1.89996904354777
C            2.24188035180336        2.14218982517407       -2.99158705100783
C            2.56236763786092        2.94340259887593       -4.06095645281270
C            2.18362156692983        4.29352836263590       -4.10913443472558
C            2.58722746122664        5.17410651699150       -5.18750091280146
C            2.67713687502051        4.70235007969924       -6.58954204070699
C            3.05981972620280        5.56640130297614       -7.62218999058295
C            3.08642955783623        5.15785510333444       -8.93638447638987
C            2.70013902697226        3.87732454792949       -9.27173789002645
C            2.26077317695590        3.01977775315762       -8.28511095694887
C            2.23478386186020        3.42975264117232       -6.97067383169821
C            2.65935132525737        6.57688712329741       -4.86678714940429
C            3.77814939020484        7.44089448345249       -5.22214739814310
C            4.96040888496344        6.91578575001418       -5.74713303440211
C            6.08193489210726        7.69554640936702       -5.91808966390629
C            6.09054207125442        9.02359690226623       -5.53867445824065
C            4.92295732333548        9.59771075412951       -4.98550347495892
C            4.92988014757582       10.93830879845525       -4.53646788158500
C            3.79451198210553       11.46397602115806       -3.94535413431888
C            2.65870890183948       10.70747139287750       -3.78304994751719
C            2.58743027424478        9.37991950072871       -4.23187870491136
C            1.43217260155445        8.53909190180234       -3.98723788019937
C            0.05261110191191        9.07962851036453       -4.01639656155997
C           -0.21898850134620       10.38814112803157       -4.43402663833685
C           -1.50768305587562       10.86626404438957       -4.51914094925738
C           -2.57458137140119       10.04493728664529       -4.22075823889521
C           -2.34310674616275        8.73313778526569       -3.86437520005341
C           -1.05453014171950        8.25641177826485       -3.78009647750067
C            1.67661517624513        7.11941644300403       -3.95518318317962
C            1.16491188943032        6.22266207342042       -2.92603336292131
C            0.54583075608799        6.71707708918050       -1.77647735588805
C            0.22075912325706        5.89387151201135       -0.72203811122515
C            0.52751436527914        4.54740102069284       -0.74789550646227
C            1.17247474342274        4.00260220971287       -1.88156821497929
C            1.49137191314955        4.84034660126805       -2.98336589993458
C            0.26973907374818        3.71536232507035        0.42879094869192
O           -0.25939919202292        4.18868301515958        1.42081113681046
C            3.75344154043760        8.80689098596198       -4.82983973912142
C            6.15435185956873       11.73493550350077       -4.60802411738087
O            6.16413102779558       12.90211057128696       -4.25185636063318
N            7.33337609293845       11.10019679901479       -5.06741586881797
C            8.57001476325501       11.82753851997590       -5.01553413668883
C            8.86476940927190       12.72776092790805       -6.05223184415588
C            7.89099509920597       12.89599657619584       -7.19814273590103
C            7.22403108843744       14.27083783048247       -7.15807746813725
C            8.55035835727053       12.61700485540012       -8.54976483471163
C           10.03305092836933       13.46153640400125       -6.00366582036796
C           10.91723571584673       13.30689035842721       -4.95884706452827
C           10.63683127832326       12.41563916873266       -3.94594040797938
C            9.47054027974995       11.67147278794293       -3.94548533706383
C            9.24775648198666       10.68340111834890       -2.81297620530854
C            7.84017523115012       10.74669087744586       -2.21745035465613
C            9.61430571739156        9.26091719917155       -3.23642175454918
C            7.32354222925919        9.80643283399103       -5.63718930380372
O            8.31796535447270        9.34460177452215       -6.17179272691375
H            4.87324546735805        1.64197744120165        1.17611961438468
H            3.41793645126138        1.16059670731219        0.31459103470688
H            3.97109341342915        0.21035648822221        1.68172674159161
H            3.51983690855664        2.10795032258240        3.21437169875682
H            2.62585803904616        3.58945373633705        0.71558956272136
H            3.93367363127512        4.02226086171463        1.79546124941558
H            2.25941027951002        4.12741698102078        2.35112564881995
H            2.34683692267380        0.58436922106761        4.28756864869242
H            0.23598948253295       -0.53995744188869        4.80123745375158
H           -1.66543892697150       -0.32956618043481        3.27548647235961
H           -2.51149872530895        0.13219493668451        1.27980292063215
H           -2.11823757197065        3.15236143576639        1.07663924788411
H           -2.94112408720060        2.31730778723879        2.38226655222398
H           -3.62080309673868        2.29767068857261        0.75208985719893
H           -1.11564680602028        1.77579157377189       -0.86588097648562
H           -2.51849211122964        0.74531090457865       -1.06694357532334
H           -0.94269904771159        0.03312023695460       -0.70050522880804
H            2.55191433401782        1.11156375312683       -2.97270457529127
H            3.19362280241487        2.54946789447632       -4.83792663445724
H            3.30556852971880        6.58644267393339       -7.39246217055029
H            3.39898077788256        5.84338897645720       -9.70708293855400
H            2.71856275120980        3.55680791498913      -10.30054774941070
H            1.92131640442263        2.03087745766749       -8.54697561714515
H            1.80010299533875        2.77582919297078       -6.23768333087093
H            5.00770556570801        5.86560707760185       -5.97591081338757
H            6.98595431029657        7.26865965035723       -6.31682226850828
H            3.83141737916763       12.47454734013129       -3.57643961452120
H            1.83782835009591       11.11291545123981       -3.21809080543265
H            0.58566250218806       11.01966203852053       -4.76207307424075
H           -1.68503284231329       11.88122349043810       -4.83555612236360
H           -3.58305880045029       10.41884833024877       -4.28919491889303
H           -3.17406781499891        8.07705430833553       -3.66276433437758
H           -0.90122952486686        7.21591228961096       -3.56235410080919
H            0.36558700047957        7.77458719392942       -1.69525404476370
H           -0.24444005801907        6.29805097099255        0.16040358013282
H            7.10229100360649       12.13759909809047       -7.05348626243534
H            7.96072493987018       15.06188645379254       -7.29473971051881
H            6.73460327349751       14.43864589750512       -6.19769778806978
H            6.47500349186874       14.37680281672229       -7.94347825275866
H            9.32771901029117       13.34992189110971       -8.76265282255386
H            7.82679903593962       12.66127175079919       -9.36452847354728
H            9.01506161877581       11.63038483365145       -8.56388747581477
H           10.25138949479447       14.16142406576543       -6.79145417592326
H           11.82908129144376       13.88069756909539       -4.93469775111750
H           11.33811075729970       12.29193485544916       -3.13835168590280
H            9.94572329140020       10.97900866557053       -2.00910856833275
H            7.11102240242731       10.33202485661693       -2.91054825036100
H            7.54599340332255       11.77441420384061       -2.00200419046953
H            7.76664540529699       10.17019832008133       -1.29435115987354
H            8.96431973230933        8.92162761121892       -4.04080243892005
H            9.51232075605517        8.55653211060753       -2.41010971810791
H           10.63951945302496        9.20747796477298       -3.60397745068529
