102
 energy: -20.632710050664 gnorm: 0.000359907635 xtb: 6.5.0 (97a52f5)
C           -0.18039289573722        0.35820536686076       -2.09341103799279
C            1.21439524311358        0.37927336929924       -1.46538137144731
C            1.17635990128842        0.02826598226869        0.02220987995161
C            2.18621895922783       -0.51150257763900       -2.20972473409647
C            1.90375154531370       -1.84719574326105       -2.41377209839289
C            2.79357390322093       -2.66009354891353       -3.08026670713898
C            3.98425745671002       -2.14325670872856       -3.54273279547368
C            4.31756723051932       -0.81545106226075       -3.34293622122058
C            5.63865754221932       -0.31312156232617       -3.89763367617948
C            5.44656511578444        0.37715232374610       -5.24803706813425
C            6.40887833287031        0.57194099795836       -2.91614513429214
C            3.40386093296387        0.01671123188373       -2.67113949463113
N            3.68815302315006        1.40075087970938       -2.41505245358246
C            4.12818617594714        1.76523300047040       -1.11933308365810
O            4.33395580927065        0.91958184115897       -0.26373789559896
C            4.33241552331903        3.18332596158545       -0.83249921292042
C            4.75552586053026        3.59029938033952        0.42408271505178
C            4.95706484596901        4.91830718354371        0.71367551583111
C            4.75197205010396        5.90902200815093       -0.25802206579625
C            4.94131043835072        7.27407697232942        0.02971642081603
C            4.76739952890842        8.26511601688386       -0.91694223455262
C            4.39995332100694        7.89576744553243       -2.26165842261435
C            4.32663947005711        8.87543868819754       -3.23293732448003
C            4.57458571404835       10.23398055046276       -2.95964808394038
C            4.52284209549581       11.20723321137281       -3.96854267353601
C            4.75609586956600       12.53175612636225       -3.68697985477417
C            5.03527898168112       12.95517996379099       -2.39603268334932
C            5.08905844372958       12.00794665824954       -1.34753670107839
C            5.35513859555237       12.41353356185999       -0.02236920219808
C            5.42363508030620       11.45946225378277        0.97475799859149
C            5.23940552064579       10.12053686555955        0.70111257057901
C            4.96585832370227        9.66995734348741       -0.59314636212946
C            4.87731310912446       10.63383696572059       -1.62820008420280
C            5.53954560898889       13.83148567215489        0.28955076397514
O            5.75900836859311       14.19512079882740        1.43290621873398
N            5.45141863020195       14.76454190863940       -0.77131152952991
C            5.69207442945577       16.14990153819443       -0.48039552837383
C            7.02123327802728       16.58146894971249       -0.33317702666991
C            8.15478809058677       15.58958647260572       -0.48528388688664
C            9.19242431772249       16.05466770570422       -1.50871413082213
C            8.79083915181053       15.27131491537782        0.86809640954813
C            7.27665782668798       17.90127394653616       -0.01941815537095
C            6.24462496317377       18.80073313760863        0.13087816182076
C            4.94056101230137       18.38354261123223       -0.02385797439085
C            4.63701250919534       17.06629991862548       -0.31845176542723
C            3.17755882298804       16.68831532196573       -0.50005405141500
C            2.78533734297429       16.69127405268462       -1.97769613126401
C            2.80243321835537       15.37063520016994        0.18026922010496
C            5.28158516687344       14.36888458369846       -2.11901529211761
O            5.33462815194009       15.18299664077999       -3.02649360352352
C            4.13477190213775        6.49840567873924       -2.56946007033243
C            3.68614281201713        6.06763850588391       -3.82090092918805
C            3.44428828535470        4.73520389416849       -4.08091815738264
C            3.64717418519662        3.76592548960407       -3.11729286808746
C            4.10524034813413        4.15003649095736       -1.83897535248563
C            4.33137844183381        5.52242740360056       -1.56108612628374
C            3.37307980196563        2.35766560323864       -3.40748952843827
O            2.88758345304160        2.02378394926268       -4.47523899724190
H           -0.84950514717200        1.06680339305385       -1.60395089384135
H           -0.63231696738603       -0.62916047641444       -2.00703528042741
H           -0.13850126829930        0.61035483749548       -3.15358797854804
H            1.59994031140326        1.40928628752108       -1.55673286033420
H            0.79868532837383       -0.98285891324040        0.17077391327775
H            0.53113660690496        0.70829275149736        0.57924749893364
H            2.17486251656363        0.07392340226682        0.45901451158175
H            0.97924666150948       -2.25510852965413       -2.04375650444036
H            2.55872220105041       -3.69969096281103       -3.23954902063170
H            4.67154891577323       -2.78293615511825       -4.06964656347852
H            6.25848631613044       -1.21131882770702       -4.07018522421217
H            4.82887903447864        1.26645911399013       -5.13785504257356
H            4.94599684579090       -0.27828139801902       -5.96139302539808
H            6.39838888045092        0.68681534787136       -5.68075319377952
H            5.91609934022311        1.53518687274904       -2.79886403405476
H            7.42376093357075        0.77011307527403       -3.26309135454117
H            6.46897953432517        0.11018030728973       -1.93007044506325
H            4.92182837570725        2.83844002242920        1.17606166882872
H            5.27855049413534        5.21190018867365        1.69780122606855
H            5.24654456572230        7.53187003280430        1.02538209056468
H            4.08878845380315        8.61001828961174       -4.24485461916672
H            4.29970773160604       10.90220550884563       -4.97612405482130
H            4.72195582443590       13.26832862976967       -4.47100657608759
H            5.62443179207545       11.78553355124591        1.98074100400469
H            5.29490600574387        9.41748480688227        1.51143641608035
H            7.70640470992854       14.65852339696163       -0.87251742181186
H            9.69861866401861       16.95729528241312       -1.16872874151223
H            8.72567413217282       16.27941944622824       -2.46836809057110
H            9.95753955932597       15.29546286132306       -1.67488256372655
H            9.25617440648635       16.15956342629602        1.29419941101045
H            9.56015330775059       14.50357289209025        0.78016511069947
H            8.04072907066382       14.92011297712774        1.57795810416109
H            8.29389807296692       18.22681345502065        0.11190752308315
H            6.45689365979359       19.83002523307852        0.36922609423543
H            4.13937075935146       19.09438912100961        0.08570188405362
H            2.59266999811412       17.48158722273868       -0.00065365284080
H            3.34791181656543       15.93609260850829       -2.52339752644978
H            2.99928490354140       17.65377223777849       -2.44342681039698
H            1.72486914037481       16.47652488563130       -2.11321028580853
H            3.24954493410125       14.52702782249053       -0.34201600693876
H            1.72339900519025       15.21149563747783        0.18230662591841
H            3.15352714302511       15.34366649477131        1.21231132406468
H            3.50644199095184        6.78462626213173       -4.60040935927048
H            3.08798027111051        4.42692624308664       -5.04871336813510
