61
 energy: -12.088099600818 gnorm: 0.000593783011 xtb: 6.5.0 (97a52f5)
C            2.51953851558818       -0.79102836843424       -0.09468039574758
C            3.79332667432659       -0.10573704944298        0.40048728701335
C            4.65358959771470        0.39243687742825       -0.76196089260010
C            3.47917500893378        0.96203913494233        1.43702212898214
C            3.55648679501733        0.59652765577468        2.76904094389203
C            3.25855585902544        1.48810177909090        3.77310445043452
C            2.86595898113971        2.76757144360569        3.45590369925765
C            2.75455582171293        3.17938792507040        2.13994338446803
C            2.34395161205500        4.62254961175200        1.89160027782039
C            3.56234933195172        5.51709218523538        1.66181732273072
C            1.30522508278067        4.78747379273707        0.78108540686348
C            3.06905048643454        2.26987004141634        1.11095986108357
N            2.97437659997031        2.67535629526497       -0.26297440243682
C            1.79038660195632        2.38221570208746       -0.97757745228188
O            0.85373785508066        1.81470364735045       -0.44219450154264
C            1.71083588477417        2.79261075720705       -2.38254125794290
C            0.59655171995796        2.49410895749172       -3.13174762099969
C            0.51073808196399        2.87684052797617       -4.46405158607121
C            1.53162162798321        3.57395224265504       -5.04981263482964
C            2.67873172598957        3.92487056833725       -4.32296643902643
C            3.76079854202904        4.66232851010299       -4.91360619013778
O            3.71612074802904        5.15974013212009       -6.22264459687182
C            2.56717432898806        5.85509681748195       -6.65999665717753
C            2.20908578739602        5.81236732547700       -8.00766557283175
C            1.08798184119397        6.46953559836218       -8.45651909369215
C            0.30459907178713        7.19011363773978       -7.56958107717758
Cl          -1.11231949531105        8.00888710962663       -8.13252588211370
C            0.65602398863670        7.25346439446461       -6.23104625182586
C            1.77702413284048        6.59748435810086       -5.78091954556556
C            4.90512891928383        4.88302645251590       -4.15423274262448
C            4.99571167262241        4.46054790235380       -2.84477820546555
C            3.95356415710402        3.79023144079826       -2.23508321848398
C            2.78038153022614        3.50725711690427       -2.97458815884036
C            4.07124822720409        3.35148988509436       -0.84732546853306
O            5.09460113468673        3.55593942752466       -0.21417358461444
H            2.74301285957291       -1.60331549010057       -0.78688209413670
H            1.88043801863467       -0.08031618808384       -0.61486524126203
H            1.94096111429309       -1.19971730745196        0.73419049528671
H            4.39310651252330       -0.86911229063506        0.92841738329443
H            4.07198742792536        1.03120720046290       -1.42358583890933
H            5.03213774810971       -0.43259446116874       -1.36679605491854
H            5.50488379125928        0.97258926096632       -0.40412967484702
H            3.85335694060299       -0.40700146716002        3.02220394230059
H            3.33224027391890        1.18517193775153        4.80471984898487
H            2.64278548652475        3.46460531104913        4.24561543374935
H            1.85972613393138        4.96172388475494        2.82518967707190
H            4.08977958559340        5.22070662671723        0.75739768413573
H            4.27035292932634        5.44332598797931        2.48768684720827
H            3.27768355051605        6.56376116265072        1.55005087014919
H            1.75865601926128        4.62949046420957       -0.19534438346233
H            0.87686156447984        5.79057111647827        0.77467051094731
H            0.49223852311246        4.06877081853285        0.88981016159864
H           -0.20898446228375        1.95251601343998       -2.66677719489561
H           -0.36589355130286        2.62347903802059       -5.03716006209357
H            1.46431109307835        3.85555429907018       -6.08484469480226
H            2.82447198380059        5.24763353085021       -8.68517734362696
H            0.80434821565988        6.43433826476780       -9.49444996260598
H            0.03978558654971        7.82063749293705       -5.55463945777886
H            2.05809075359910        6.64445006115528       -4.74409926557534
H            5.71965994991143        5.41753809956484       -4.60959438839379
H            5.88649350033205        4.65254279707708       -2.27188853054839
