35
 energy: -6.793370784611 gnorm: 0.000473685135 xtb: 6.5.0 (97a52f5)
C            2.19936766419994       -0.71336028193504        0.64698405968256
C            2.37882676149826        0.05245271399386       -0.65872976385849
C            1.12864452397575        0.07142006996662       -1.53579852736543
N            2.94999577837584        1.41686266519069       -0.42964550740240
C            2.12068118972481        2.52772317405818       -0.13437297645828
C            0.86549949437673        2.39886615926110        0.45657753695235
C            0.04326384225610        3.49260317962305        0.69658762148883
O           -1.19693261641498        3.38260218038406        1.27528695967557
C            0.49791498888690        4.77894605717883        0.33626594767056
F           -0.29220525693963        5.85166347666688        0.55725046577100
C            1.74016006558680        4.92499098624155       -0.21792706897822
C            2.56702841625154        3.82908699756788       -0.44357039377981
C            3.90215450448141        4.04955820669531       -0.97390494444614
O            4.27372699201225        5.16472109364799       -1.31540986455677
C            4.79217193520260        2.90385570752453       -1.04602127622640
C            6.12285985793486        3.09489196160240       -1.40802244632737
C            7.00333696076591        2.04855096026194       -1.44305017516396
F            8.29631189078714        2.21466977510985       -1.79179365429272
C            6.56380470751150        0.75582854085424       -1.09965468678951
O            7.46758389859023       -0.27324768408818       -1.11995619045654
C            5.23605300556039        0.56217321006862       -0.74939738932894
C            4.31983665870247        1.61319132064509       -0.73281953098791
H            1.94471157232398       -1.75832329228613        0.46498442590788
H            1.40526363524529       -0.28967590793375        1.25765043185129
H            3.11102705004457       -0.68650394323613        1.24474586699726
H            3.14163273303566       -0.47723467155115       -1.25303606428261
H            0.27263540439716        0.49874493672954       -1.01941336575180
H            0.84346337252992       -0.93531223425737       -1.84508514117543
H            1.29579302982812        0.66483940887843       -2.43559118906444
H            0.52246569096319        1.43628077010221        0.77463743599535
H           -1.40248871209098        2.45349893614224        1.48723876941661
H            2.09199136687709        5.90905274812376       -0.47050708289749
H            6.46586802527828        4.08348969144359       -1.65434692060579
H            8.33558588457156        0.06938427451968       -1.39511852478329
H            4.94638568367120       -0.42667118718609       -0.45052683643388
