42
 energy: -7.658281215173 gnorm: 0.000595716629 xtb: 6.5.0 (97a52f5)
C            0.75506607157235        1.18767831867715        0.17198024036400
C            2.21236872150375        0.74763663942510        0.08350082267983
O            2.44484897593361       -0.05497186874386       -1.07156706143538
C            3.17517245371484        1.94069141759799        0.15092596643083
C            4.60432615206591        1.53018873100949        0.12467072401210
N            5.39738956343231        1.74249407657239       -0.88628752557400
C            6.63007914993246        1.20750419046903       -0.57321379957021
C            7.74579943841579        1.18069507531450       -1.35244901641241
C            7.85688469335364        1.76117200560363       -2.66471832487133
C            9.04234519348399        1.63020527198891       -3.39633887782880
C            9.15740051826726        2.18822231675094       -4.64989278266154
C            8.10717512191808        2.88978588967275       -5.20081268114793
C            6.90822283955027        3.04885909749223       -4.50050395089410
N            5.82976417989561        3.77971063788929       -5.04399222459078
C            5.81910855664871        4.20417214030893       -6.44261076818083
C            4.69622896492445        4.20244884333505       -4.22241114014921
C            6.80701608445405        2.47127688042909       -3.24081408559090
C            6.55783210628520        0.61814210806915        0.77251356270420
O            7.44652350006198        0.05055850144586        1.38340576664764
N            5.24994967577438        0.86430258254121        1.17026322647343
C            4.70543556812538        0.42748593027358        2.44545993278692
H            0.08607164204290        0.32877904869452        0.12609986590268
H            0.50335927897800        1.84571303831821       -0.65832912314067
H            0.55456723458419        1.72787196509810        1.09753979042770
H            2.43434439897672        0.07821763432439        0.93109797724252
H            2.29268468406681        0.47497280927538       -1.87832602497696
H            2.98167592974336        2.53508468584901        1.04872405240342
H            2.98325677375143        2.60239690535647       -0.69744067180366
H            8.61455405601888        0.69116849426002       -0.95140636320145
H            9.86595921771789        1.08492114903042       -2.96861741528977
H           10.07603888845829        2.07798060787554       -5.20238263665258
H            8.21423713616100        3.33377874093338       -6.17425824832316
H            6.13396835813633        3.38465847532306       -7.08552927382894
H            6.49242918450843        5.04769766220931       -6.58166811433552
H            4.81828889187045        4.50359887285639       -6.74711369809811
H            5.04709276461415        4.57644271673185       -3.26260400308958
H            4.02345118756754        3.36400937374123       -4.05654718892991
H            4.14180146234620        5.00121048324845       -4.71087592651214
H            5.88562301444917        2.55956040341294       -2.70154325095541
H            5.50841534036280        0.34931195811608        3.17586407354930
H            4.23976569454940       -0.54966716802319        2.33597062296130
H            3.96800733178720        1.13915335722931        2.81076755344743
