48
 energy: -7.932378112025 gnorm: 0.000338763301 xtb: 6.5.0 (97a52f5)
C            0.75766246186500        0.05520430096583       -0.02517395010911
C            2.27924548964855        0.07099518249402       -0.09708958604974
C            2.93000298574758       -0.31056572750080        1.18724924146462
C            4.25122867288851       -0.36518190294793        1.37308863451858
C            5.23426729247855       -0.06694159124155        0.36278640532758
C            6.55752712502403       -0.12440379692835        0.58628548298642
C            7.54496089082432        0.16936454848126       -0.41120955146493
C            8.86619295710926        0.10873982971854       -0.17686144336696
C            9.86678950852760        0.40198017355252       -1.17144293788213
C           11.18324023258742        0.33863006275462       -0.95546121302842
C           11.79036782861222       -0.04779401026336        0.34798441376756
C           13.32150127250314       -0.05007225345275        0.34126282433935
C           13.91344699371657       -0.45337696150787        1.69151525866420
C           15.44176526094064       -0.46122446392097        1.70790177458609
C           16.01357047212178       -0.86732631695983        3.06595270543656
C           17.54116292742848       -0.88263328829200        3.10034869053751
C           18.10070681226816       -1.29074843964803        4.45917341537376
C           19.61035445975095       -1.31551554541272        4.50361383574953
O           20.25419386363316       -1.01713123996527        3.51753018968721
O           20.16353083891405       -1.68501025027383        5.69436194402268
H            0.29880085085505        0.33930720588455       -0.97448633213445
H            0.39251421276394        0.74627308659251        0.73647237712750
H            0.38623602607812       -0.93728540898960        0.23562151024081
H            2.63009334937334        1.06836287573095       -0.39279375120636
H            2.62431023904371       -0.60742650680348       -0.88823491896313
H            2.27823785892003       -0.55455820090819        2.01039870726858
H            4.62720536820505       -0.65101633666998        2.34167727430767
H            4.88934739189582        0.21474475964006       -0.61611365262482
H            6.90421652579335       -0.40588969257208        1.56543333044427
H            7.20306824763559        0.45108061283022       -1.39181001885785
H            9.19798202701468       -0.17400134768111        0.80634875152365
H            9.51159507453905        0.68935675660292       -2.14722262303220
H           11.85851220718797        0.57697736746998       -1.76081325650225
H           11.42711177993223       -1.04204910674391        0.63489921326549
H           11.43154588349136        0.63253275102967        1.12975070864470
H           13.69086868575247        0.94228762741338        0.05642163592311
H           13.68624290896889       -0.72735947231072       -0.44016655313321
H           13.53891960875401       -1.44460210029895        1.97416543635339
H           13.54214581841814        0.22278380258744        2.47099987016747
H           15.81965235714993        0.52960254552747        1.42892040414700
H           15.81620830237422       -1.13889873810305        0.93142109650890
H           15.63088149959108       -1.85666141188266        3.34382301886914
H           15.63618832943817       -0.18919551544026        3.84064455445035
H           17.93039654277739        0.10521986003191        2.82714974388958
H           17.92445355808644       -1.56128032270636        2.32930734260521
H           17.72074568838278       -2.28012797595316        4.73176831968215
H           17.73343470167559       -0.60614746227622        5.22990240562562
H           19.46930660931345       -1.88258796165133        6.35602927085152
