61
 energy: -10.370406630499 gnorm: 0.000419696609 xtb: 6.5.0 (97a52f5)
C            1.00778748028722       -0.13949265270133        0.36741711938805
C            2.52062678230495       -0.05365550815631        0.33719562321167
N            3.04238061526376        0.39831133128187       -0.95024522191106
C            4.37290099620443        0.56653210005079       -1.27418393117522
C            5.36783565586007        0.29449294290795       -0.34492769359767
C            6.72037083015857        0.45587506669965       -0.63179749421921
O            7.64532432474112        0.14066679151953        0.33561278603503
C            8.97594954142132        0.28726583705166        0.02270581307150
C            9.93349311592925       -0.05711855302456        0.97135108856794
C           11.30105475780600        0.03744680221689        0.73542137697624
N           12.15392392642124       -0.39975384773053        1.73698032988245
C           13.55375885720012       -0.78941274991263        1.63968305634222
C           11.73748938513919        0.56865597511730       -0.52167481555969
C           13.17206670024664        0.80195022311338       -0.83400217207050
C           10.80190656254479        0.90790734930003       -1.45641931678075
C            9.41290685986929        0.76876813860676       -1.23865546849448
C            8.46087628417660        1.09600918088440       -2.22811479008379
C            8.88594109322739        1.56745779267803       -3.56927243494915
C            8.56757349608000        2.86300939358100       -3.98632352221776
C            8.97768345857085        3.33849022211202       -5.20775647981408
C            9.72221378784577        2.53539497114898       -6.04820116201710
C           10.04547803934012        1.25409367351068       -5.66543800361037
C            9.63218686285506        0.74938828745399       -4.44453137339453
C            9.98943718297657       -0.65061089500606       -4.08871346535269
O           11.05097035200439       -1.11456066943003       -4.45980721312528
O            9.07341208774032       -1.34273596782898       -3.34510075513945
C            9.55795571982372       -2.62326261438641       -3.01243139192190
C            8.67490841994689       -3.30905948698776       -1.99071089381043
C            7.09423130216455        0.93122521253603       -1.91803940821593
C            6.07421600936154        1.18947105052251       -2.86221242337030
C            4.75120650085731        1.02099282375360       -2.57489189923574
C            3.71855173393798        1.30441871717468       -3.60663628089582
H            0.63729939811874       -0.47841943735776        1.33655974857392
H            0.64053321086628       -0.83466682208270       -0.38842678717714
H            0.55680795557792        0.83213533339985        0.16262924021550
H            2.96529590775980       -1.03093474863887        0.55774501583836
H            2.88271117390824        0.63515521438411        1.10922124798825
H            2.30634868397010        0.60431502940094       -1.62128001539108
H            5.10397036999704       -0.05913971306928        0.63260117201680
H            9.58754812775474       -0.43460734952381        1.91456238144920
H           11.73267973781498       -0.73153604036265        2.60266922819846
H           13.70366005963900       -1.42770415131882        0.77111343996001
H           13.87479023980340       -1.34722515934572        2.51966033665710
H           14.18932309125818        0.08966066559887        1.55895079531642
H           13.65269604412386        1.38338767309831       -0.04790858569018
H           13.28585462079171        1.36463004296959       -1.76120378176174
H           13.70669138207714       -0.13822010497215       -0.96318549831165
H           11.13020666667921        1.29998007046326       -2.40125441848196
H            8.00423216828596        3.49630169395969       -3.32285511972260
H            8.72408185304909        4.34176195139392       -5.50807713962633
H           10.04921909603524        2.91170857902164       -7.00358847541292
H           10.62658065864622        0.62109658889982       -6.31436136977400
H           10.58290174785635       -2.49764403065491       -2.63639979175491
H            9.62512632452013       -3.19806139703958       -3.94612559309505
H            8.61298015216643       -2.71377408625932       -1.07934923015882
H            9.04395109467234       -4.30096677989459       -1.72561264438446
H            7.65956147970198       -3.41479147243877       -2.37296637167980
H            6.35586620441161        1.51917366152387       -3.84488381797495
H            4.17209909311923        1.62821918038308       -4.54374887790162
H            3.04587956726741        2.09636377282380       -3.27694471956111
H            3.12709516780435        0.41362089760537       -3.81907995087573
