63
 energy: -10.659836851954 gnorm: 0.000555350166 xtb: 6.5.0 (97a52f5)
C            0.79061401168163       -0.15483477662703        0.12270935163860
C            2.30533196072434       -0.09164490301944        0.11823297711786
N            2.92707017502174       -1.21803613746444        0.80943561709497
C            4.29824845123510       -1.44147330824919        0.92820558773708
C            5.21114816012460       -0.52727105431574        0.40706744295338
C            6.58086516769288       -0.71886365226910        0.49826275657565
O            7.43630270587340        0.21518262952155       -0.03765538607036
C            8.77805303945047       -0.06102218789478        0.08750204349539
C            9.69901243473795        0.83817773966037       -0.44236623219806
C           11.07085577991089        0.64483309716664       -0.37199877626108
N           11.93539709068947        1.58021286266583       -0.92723404801229
C           11.53661076293709        2.81021492138534       -1.60496505421501
C           12.68175858003334        3.49562975007392       -2.33008392551680
C           12.22454732476633        4.71255792841203       -3.07585692633249
O           11.12870357724633        4.73668350231362       -3.59890213602114
N           13.08968908927570        5.77880612734991       -3.16282389383832
C           12.71869898931634        7.00798762623057       -3.83792355784916
C           11.75464118961340        7.82983954528823       -3.00714560745838
C           13.97401043373356        7.78908668086257       -4.15856268561295
O           14.90442501566597        7.74399242392447       -3.38680700409291
O           13.94440864266281        8.51137862502066       -5.31082167429835
C           15.15472583325083        9.17975693538031       -5.48660524460624
C           11.56738825751379       -0.53348887575390        0.27848373988068
C           12.94013091723120       -0.81710949031614        0.38693999460138
C           13.38362687429352       -1.95120736312894        1.01483315606305
C           12.47767533243683       -2.85219413409982        1.55996324036058
C           11.13312786009293       -2.61043397583867        1.46839583264880
C           10.64711736918691       -1.46147744743935        0.83206373589984
C            9.23259389949465       -1.23379628697617        0.73900044481209
N            8.39598329424465       -2.13530579010155        1.26564001384661
C            7.07485264021928       -1.87979558718065        1.14356987033982
C            6.14815112522694       -2.79151829657416        1.66882642067455
C            4.78737841075824       -2.59877527112961        1.57688671138606
C            3.85094860932850       -3.60080164263861        2.15098945471290
H            0.34530819915853        0.69795487613504       -0.39319899945017
H            0.40271400758752       -0.16389039999364        1.14206039934812
H            0.43515931196766       -1.06098765076473       -0.36942063214480
H            2.65284756502403        0.83057134910495        0.59813334400513
H            2.68662913138154       -0.07318722209583       -0.90940209357901
H            2.25248476461144       -1.90248206780400        1.14235730407347
H            4.86102348566146        0.35863362176306       -0.08608027139903
H            9.30939622244442        1.71730832248804       -0.91735531161086
H           12.94123783610861        1.51965312210494       -0.79764867361612
H           11.08968124092428        3.48886975511871       -0.87077115762248
H           10.75093881074150        2.57213116194416       -2.32873536920807
H           13.14066691479476        2.79787400541448       -3.03708890117960
H           13.46446682299161        3.77128199042386       -1.61795481655464
H           13.99411936891781        5.81018184150937       -2.68419009703034
H           12.24277221684038        6.71604687573599       -4.78695168723155
H           12.22124117131444        8.11317355613840       -2.06426492905810
H           10.85612977806015        7.25606389760881       -2.77760713625702
H           11.46073202832730        8.74328287306952       -3.52529408990316
H           15.09914570074305        9.77681646758862       -6.39992510092713
H           15.95810955046045        8.44335905836520       -5.56830581538120
H           15.33315618873509        9.82827364358045       -4.62517953499251
H           13.65910952058709       -0.13893092474818       -0.03306673067951
H           14.44088427588988       -2.14818285601473        1.08627838558189
H           12.83437311450132       -3.74185620596151        2.05257658958453
H           10.42465118593120       -3.30465351431440        1.88526713720810
H            6.52906693254064       -3.66962372826003        2.15746832424167
H            4.39001562659604       -4.40933192730358        2.64532395420507
H            3.23308041121746       -4.04613344359687        1.37091199895253
H            3.19727561027913       -3.14117669148427        2.89264767117439
