72
 energy: -12.182069864471 gnorm: 0.000491052898 xtb: 6.5.0 (97a52f5)
C            0.91399585869077        0.19155030720735        0.08906721211087
C            2.42941392102910        0.15307147816184        0.06776337073587
N            3.03914446816421        1.07001715358737        1.02748461884511
C            4.40774036875481        1.22639894248487        1.24314716508891
C            5.32908850409146        0.50110281922038        0.49093370049631
C            6.69651493270629        0.62321354186880        0.68110748437947
O            7.55953100200742       -0.11980638408423       -0.08946477364219
C            8.89797752301804        0.05522624943491        0.17381325662987
C            9.82613065607759       -0.67278996601779       -0.56487675861680
C           11.19579729393392       -0.56938352988312       -0.37059407287868
N           12.06660821953293       -1.32537103749428       -1.14569701660499
C           11.67244734253350       -2.22146434999724       -2.22801002829488
C           12.82931134792425       -3.01373149899068       -2.81208403902064
C           12.36785781153527       -3.95473943850314       -3.88191215168198
O           11.37311279710082       -4.63001367265871       -3.71040624690432
N           13.10100954162830       -4.03173659362132       -5.04456444441360
C           12.79944691151219       -5.01482962135650       -6.06915071353344
C           11.79384519830829       -4.48038575902115       -7.08205190178600
C           10.45498978361044       -4.13013967018720       -6.45418915471159
C            9.48717124748892       -3.58409920300027       -7.46040678532345
O            9.17600400275824       -4.25573049739711       -8.41766414457671
O            9.02123213692861       -2.32880882000716       -7.21051881677489
C            8.14545347343499       -1.93134013253293       -8.21919451703025
C           14.08254726739465       -5.43832027783037       -6.74731062774020
O           14.98911888148428       -4.64329799995727       -6.84329579640285
O           14.10276833950206       -6.71049760797079       -7.22769616231215
C           15.32798105388086       -6.97175887217698       -7.83853460737645
C           11.68174067482521        0.32773018166180        0.63809899313935
C           13.05123431743143        0.48972245652166        0.91131075693021
C           13.48449190460062        1.35737498914422        1.87905220862237
C           12.57115875673597        2.09891905422360        2.61776083816372
C           11.22934360923550        1.96277546647643        2.38191400890136
C           10.75381106742119        1.08499696547686        1.39978505559634
C            9.34195434212749        0.95424177705645        1.17414484702697
N            8.49811347184175        1.68088243074178        1.91551437358016
C            7.17971067041153        1.51442003585235        1.67109813978857
C            6.24517771874599        2.24336996224294        2.42006195748684
C            4.88650419903406        2.12049210898441        2.22860075127151
C            3.94134691957920        2.91959739572955        3.05251391339184
H            0.47857927634100       -0.49601546235142       -0.63858550346762
H            0.54529142603577        1.19225252173630       -0.13970455035221
H            0.52953546608028       -0.08119264356315        1.07272325596939
H            2.80622222105900        0.41035267075632       -0.92897610056284
H            2.79148149981568       -0.85757832854877        0.28972317268619
H            2.35617341526792        1.56777977111315        1.59343666248035
H            4.98825473103985       -0.18052127112358       -0.26401728527983
H            9.44331774886170       -1.33566648709842       -1.31618236912202
H           13.07411352815488       -1.20719420062340       -1.08826094927915
H           11.18541566310120       -1.63048524298019       -3.01092693057994
H           10.91905978501570       -2.91847359444703       -1.84700039306276
H           13.32179145380284       -3.58843085658052       -2.02199967498154
H           13.58397726725852       -2.33337117478263       -3.21620481488216
H           14.01139347410156       -3.57521850021306       -5.15684360559750
H           12.37451842027139       -5.88991265218768       -5.55575567738263
H           11.64439637452624       -5.21352109692032       -7.88315495385487
H           12.21892018881004       -3.59430730604474       -7.56476427786860
H           10.59365728646948       -3.39109186386859       -5.66005239960875
H           10.02056233077384       -5.01085878666532       -5.97256613479687
H            7.76383995637824       -0.93557470984616       -7.98206539510699
H            7.32066711778112       -2.64592022119340       -8.27727965367485
H            8.68434437374397       -1.91047336989886       -9.16943845984220
H           15.32416772975052       -7.99876314895575       -8.21157764436547
H           16.12642485748147       -6.84207496305461       -7.10350983222051
H           15.46960523252399       -6.27173487126497       -8.66587363593849
H           13.77583501580517       -0.07772545083018        0.35791459816452
H           14.53956079304945        1.46643769706422        2.07075612850043
H           12.92018320838788        2.77954185170443        3.37701212153209
H           10.51472044101855        2.53054036016193        2.95191312884551
H            6.61798953286627        2.91831098197479        3.16874168531103
H            4.47316789606200        3.56925376183897        3.74814719957772
H            3.29333025475766        2.26944756387458        3.64075844602318
H            3.31794449658732        3.55462063940459        2.42252395017952
