45
 energy: -10.258242086875 gnorm: 0.000784304821 xtb: 6.5.0 (97a52f5)
C           -1.63338083256618       -0.43091541446400        0.01422266456472
C           -0.44055882167179       -0.70009657000478        0.00449135584529
C            0.92768584396115       -1.00136360012637       -0.00208719439412
C            1.37765010105896       -2.29645209692308        0.00911917103760
C            2.75235200070763       -2.61828577950121        0.00315045187730
C            3.70965996807800       -1.65319819253774       -0.01353459385216
C            3.32378831865567       -0.28428763446092       -0.02456591112507
N            4.11063333182510        0.77484369297575       -0.03731385426661
S            3.15067037811530        2.10934842110085       -0.04085513927119
N            1.68921658232320        1.35358880938932       -0.02612143007745
C            1.90827204598336        0.05482076646876       -0.01888087182276
C           -3.00493825741578       -0.11922967462735        0.03245941851255
C           -3.43514449076985        1.20366420327876       -0.03259032313420
C           -4.77559538324780        1.50936152783527       -0.00916450509342
C           -5.73057177072226        0.50256597029456        0.08214154460401
N           -7.13088323899415        0.82397103590989        0.12204185022808
C           -7.81652875301803        1.67086246760575       -0.77448108349543
C           -7.37201973192616        2.35774069060336       -1.90366892688817
C           -8.26932598575040        3.12159777140317       -2.60862788248464
C           -9.60598808642229        3.21416691448346       -2.21106270829245
C          -10.06245737659088        2.53958469146241       -1.10466145929611
C           -9.16244353955661        1.75718094216063       -0.37954695543514
C           -9.31669711237604        0.93903311651109        0.79952405166605
C          -10.41571206410184        0.66314737358037        1.61445639157288
C          -10.24056693996454       -0.16082005497898        2.69976672134498
C           -8.98934717467239       -0.71230503960107        2.98890156736318
C           -7.89929550417660       -0.45032997037850        2.19587709329286
C           -8.06027314912472        0.37823651824791        1.08585198444622
C           -5.30445437543975       -0.81961250288128        0.14523636584913
C           -3.96392739532030       -1.12548435884999        0.12007039214438
H            0.65141399119640       -3.09082611475753        0.02352380573350
H            3.04534317349779       -3.65509633339627        0.01241845189662
H            4.75554876874419       -1.90148217300534       -0.01804440635309
H           -2.70011747744896        1.98737151297649       -0.09849259391866
H           -5.10230712546968        2.53381825955190       -0.04408491663951
H           -6.34465565220904        2.27531724316584       -2.20930629049791
H           -7.93874781938804        3.65761298440458       -3.48299759842188
H          -10.28810263787770        3.82215409437123       -2.78206386481414
H          -11.08977426311071        2.60396912175881       -0.79269398792239
H          -11.37401447761582        1.09560979896712        1.38752136132858
H          -11.07870234380080       -0.38301001000918        3.33946044117329
H           -8.87890700493593       -1.35162013399197        3.84925634895897
H           -6.93208089151794       -0.86324613755455        2.41892571678983
H           -6.04152708962905       -1.60124789919988        0.20235489979569
H           -3.64000773731401       -2.15096823724871        0.16876444745460
