79
 energy: -13.289997348690 gnorm: 0.000736272518 xtb: 6.5.0 (97a52f5)
C            0.92595447582792        0.13529829977856       -0.04512809370154
C            2.44178404119125        0.12986089040808       -0.06442019904498
N            3.02574301612536        1.28395839995978        0.61376743702819
C            4.38870421048815        1.53620605839599        0.76440014601628
C            5.33358550344164        0.65775194954688        0.23871676269253
C            6.69648054389081        0.87494090644198        0.36932817838930
O            7.58495329423460       -0.02616952579086       -0.17009130892221
C            8.91738442140277        0.26820815939952        0.00648128408566
C            9.87010458125710       -0.60306286140861       -0.51404599363533
C           11.23570207089204       -0.39451654599280       -0.38735624130359
N           12.13022810421290       -1.30593518424060       -0.93445827923410
C           11.76307913518746       -2.50516746013983       -1.68113355665948
C           12.95442937636961       -3.26451725342631       -2.23968263190965
C           12.51968358186978       -4.44847406501273       -3.04965188394409
O           11.68441599150746       -4.30859451296110       -3.92067018595975
N           13.09191051688687       -5.67151291528436       -2.77945730569165
C           12.66449534478180       -6.86966525411866       -3.47829583304693
C           13.82986488534195       -7.75080666797324       -3.90839198806883
C           13.38794300447869       -8.99734029155397       -4.67586394277690
C           14.55366202388006       -9.88546759621626       -5.10257735083887
C           14.10318035586933      -11.11350684597098       -5.88884999173557
N           13.37512433041525      -10.74049306552138       -7.10264973725410
C           12.52161207111272      -11.59282710845642       -7.77704139925201
C           12.09894691376032      -12.86867359247090       -7.12852121895856
O           12.10700564068143      -11.31633641757146       -8.88703646781595
C           15.27712979921865      -11.99455440713703       -6.25943471709069
O           16.29388532572800      -11.49090333175611       -6.67900973971607
O           15.07413135511095      -13.33251374162068       -6.10590958973305
C           16.21096816165102      -14.03659086251019       -6.49939760239713
C           11.69148837470632        0.77143967272780        0.31310073113516
C           13.05543743482507        1.06210434184067        0.49146108069374
C           13.46018527779950        2.18454727362929        1.16494781568586
C           12.52244924012310        3.06494835709935        1.68985226398798
C           11.18544654448406        2.81309946210866        1.53486914589282
C           10.73840678680918        1.67504449598571        0.85183123308099
C            9.33113686621654        1.43079526879095        0.70223467429230
N            8.46230298059648        2.30440654879547        1.22432693819041
C            7.14990790919236        2.02721965107441        1.05896908436716
C            6.19104145918988        2.90522159754347        1.58438468554570
C            4.83737812291253        2.68664424120731        1.45308131302952
C            3.86533354571207        3.65178178518726        2.03135648990738
H            0.50792540296126       -0.73476974992573       -0.55486252370174
H            0.53176237462452        1.02641964079150       -0.53513504099292
H            0.54795211669557        0.13209141245098        0.97797076167201
H            2.81372997429746        0.12023712549083       -1.09556159922446
H            2.82919615327801       -0.77580891563292        0.41646348768847
H            2.32782455096791        1.91855122808114        0.99394614507789
H            5.01411265771634       -0.22029820864923       -0.28811042915812
H            9.51119345930971       -1.47149066107821       -1.03125574857748
H           13.13615753548347       -1.18765152329872       -0.85546397381670
H           11.10382863355946       -2.21322705869396       -2.50506536119018
H           11.17535053825489       -3.15751159051280       -1.02689646942131
H           13.60926345712078       -3.58736769987273       -1.42560323375774
H           13.55322836662917       -2.60349842973869       -2.87321637147312
H           13.76296180809216       -5.79813869748639       -2.02016750756771
H           12.08412968526059       -6.55290231922045       -4.35213128636208
H           11.97161469852708       -7.42369644175884       -2.83568299623156
H           14.40915748330929       -8.04538817597841       -3.02627145047415
H           14.51987138793986       -7.16153797774482       -4.52260386732156
H           12.81255285018891       -8.70074825407185       -5.56008810309644
H           12.69011329837775       -9.57867758707919       -4.06245245330499
H           15.12803502354459      -10.20074058090299       -4.22455401724788
H           15.25434716597868       -9.31457345873284       -5.72035263448971
H           13.42082976518035      -11.70002021226194       -5.25936000623514
H           13.80194422515294       -9.97458239821712       -7.61677865786577
H           12.96260995073516      -13.46788649273724       -6.84200475415820
H           11.49750442816559      -13.45578168073667       -7.82139773316721
H           11.49653627307536      -12.67445344297429       -6.24179767106366
H           16.02799983100215      -15.10584828064118       -6.37089897098138
H           17.05586443192701      -13.72455194982028       -5.88078068320050
H           16.42087243680250      -13.81608843366910       -7.54887887152851
H           13.79827592648351        0.39588849647006        0.09464149889022
H           14.51125540255546        2.38754850611585        1.28977198272127
H           12.84874166840665        3.94538315944142        2.21864590518654
H           10.45317513708506        3.48991455688218        1.93872791736282
H            6.54017332415048        3.77719554105431        2.10649812759559
H            4.37449233458934        4.47787177034947        2.52831029806047
H            3.22888906910333        3.16578311739676        2.77117313729653
H            3.23102055410750        4.07721781416909        1.25339914870179
