50
 energy: -8.528099381941 gnorm: 0.000696528317 xtb: 6.5.0 (97a52f5)
C            0.78443832894821        0.08478470063192        0.00352615531947
C            2.30036601868069        0.06324107699494        0.02262337899109
N            2.90069431075095        1.07168812737450       -0.84811053704046
C            4.25725926807380        1.28336067662874       -1.02572537673893
C            5.18635977109456        0.50602399833491       -0.35092087141970
C            6.55761545600419        0.68921457698413       -0.50410295257699
O            7.42522120225923       -0.10854163659396        0.18687157015196
C            8.74706844236638        0.14013851823304       -0.02216278455638
C            9.68961336217087       -0.64071567443117        0.65265260657839
C           11.05374078032708       -0.46990382655040        0.51084530418949
N           11.92054411396018       -1.27687161288898        1.20505534789841
C           11.53381585096660       -2.34531686445262        2.12260435347913
C           12.70956588324973       -3.07141629457212        2.75499329510188
C           12.26727097362433       -4.16611659342212        3.69381740705376
O           11.08307352261273       -4.36217345055776        3.86116928336446
O           13.24543947169139       -4.88015346395072        4.30715148448137
C           11.53341018811822        0.56920874872825       -0.37882560689500
C           12.89697242601317        0.81401460089010       -0.58230444373797
C           13.32223581687438        1.80297312435241       -1.42928814791972
C           12.40120022158384        2.58774099715853       -2.10719537677039
C           11.06254186539158        2.37382040565419       -1.92952176090878
C           10.60040674573211        1.37109609719285       -1.07149708632474
C            9.18055672809072        1.16571864484423       -0.90249778018014
N            8.33524495004936        1.93798709193423       -1.57237221168065
C            7.02588588564669        1.70214750837563       -1.37629006013531
C            6.07284878766273        2.48551806901135       -2.05766267329914
C            4.72611421061938        2.30291475342275       -1.90524681503465
C            3.76502799506181        3.15869218772187       -2.64931198396716
H            0.35789856765497       -0.67635463191035        0.65972739313498
H            0.40362324396790       -0.09488075863841       -1.00266130728395
H            0.40328369154437        1.05350211215459        0.32914445977876
H            2.67430000009400       -0.91811218722263       -0.29169856177330
H            2.67376423241499        0.23123144224390        1.03948960003411
H            2.20832460204747        1.63636407345552       -1.33435971594242
H            4.85852744185587       -0.26781814419411        0.31577535417383
H            9.31312391932780       -1.40361776376675        1.30609063152444
H           12.92936653056982       -1.18500095456365        1.12583245781874
H           10.90924695653351       -3.06208521694632        1.57903145414553
H           10.90163286739480       -1.91787264249187        2.90799349472040
H           13.33234209282345       -2.35672888315792        3.30004607122398
H           13.34090025750257       -3.49939836937222        1.97154202531036
H           14.13730148312906       -4.58244376752143        4.05295789184126
H           13.62844816964839        0.21925358366580       -0.06768793031871
H           14.37711673869495        1.97422165387606       -1.57111509039101
H           12.74170239589120        3.36447576739706       -2.77246160272410
H           10.33960553179351        2.97765329860194       -2.45025484695075
H            6.43510723740551        3.25140698473889       -2.71905417550284
H            4.28325686632922        3.88523497589808       -3.27575620399240
H            3.12692508262720        3.71434887383597       -1.96167381433629
H            3.13227951312434        2.55558606686900       -3.30099130191403
