49
 energy: -8.223642106303 gnorm: 0.000693877733 xtb: 6.5.0 (97a52f5)
C            0.75278738556029       -0.00797473398912       -0.07352125793908
C            2.26806724222723        0.00552865826346       -0.03726259347640
N            2.87458299574512       -0.31145617993621       -1.32768458000838
C            4.23178667600864       -0.37313324614753       -1.59380574161684
C            5.16059560749033       -0.12159799420818       -0.59533682071436
C            6.53242987215938       -0.17429784493977       -0.82709548505825
O            7.40207745006895        0.08314785115434        0.19653329660566
C            8.72521187631408        0.00743600402755       -0.12067687813508
C            9.67119820068691        0.25923585762725        0.87773807347759
C           11.03504125146016        0.20742853912611        0.65749670417235
N           11.90791926356447        0.46017330599004        1.68665425372691
C           11.53407323282309        0.79847465610953        3.05858765405291
C           12.72733942853847        1.03372673187739        3.97240645299658
N           12.32876502845363        1.31942410231303        5.34111173778456
C           11.51126328586755       -0.11969618564574       -0.67146640128367
C           12.87453968652186       -0.18547631857874       -0.98544028777428
C           13.29732819110742       -0.49862922770252       -2.25021772911350
C           12.37391306493179       -0.75814065465636       -3.25218308692061
C           11.03565911530740       -0.70009551365726       -2.97740681996065
C           10.57584153044745       -0.38142715799162       -1.69574330439303
C            9.15642991496518       -0.32037160959801       -1.43343241852281
N            8.30967093963471       -0.56916281517694       -2.42408812868631
C            7.00052415603772       -0.49569834109767       -2.12507679632086
C            6.04729294618973       -0.74853130971642       -3.13221320072129
C            4.70087605881032       -0.69641260679933       -2.90028774127728
C            3.73990643925848       -0.97480630923435       -3.99971796074682
H            0.31889034576296        0.23125584334964        0.89907198235224
H            0.37742671658606       -0.98782661227881       -0.37083127154691
H            0.37222510848631        0.71813307040541       -0.79279611581830
H            2.64153960746143       -0.71653072621656        0.69802137702067
H            2.63628765372392        0.98909106555105        0.27648973170807
H            2.18614062917064       -0.49571550105569       -2.05325611514599
H            4.83001306529986        0.12339607194038        0.39517743962590
H            9.29965850061972        0.50027026088010        1.85451214468997
H           12.91540765206707        0.41437911593667        1.56242703756370
H           10.91771249609952       -0.01171302752615        3.45937751466530
H           10.90081237860732        1.69006292765211        3.03397187421158
H           13.34501007984481        1.85073193980010        3.57717391173714
H           13.36517078120824        0.14124219204737        3.97299210537997
H           11.72637886451560        2.12579772336758        5.37933783737123
H           13.12325037081195        1.49007539639104        5.93820129866905
H           13.60694914098199        0.01383777715726       -0.22571441449566
H           14.35128301103195       -0.54406528441762       -2.47031512272217
H           12.71215793168827       -1.00466145888013       -4.24529777186990
H           10.31173992850242       -0.89894092641729       -3.74793059160634
H            6.40854468380765       -0.99128759501176       -4.11475390439193
H            4.25844396704765       -1.20689844355863       -4.93022468865009
H            3.10165114701121       -0.11076599978487       -4.18553513435274
H            3.10657509948313       -1.82767546674397       -3.75475006454176
