80
 energy: -13.299194505605 gnorm: 0.000586561851 xtb: 6.5.0 (97a52f5)
C            0.95391509307450       -0.09089166919353        0.01082644773952
C            2.46937984017734       -0.10106731618551        0.00488474841811
N            3.05155785599187        0.89757750516225        0.89686954126327
C            4.41483678715934        1.13281305575147        1.07198995400144
C            5.35859174643855        0.36150290961865        0.39709846107764
C            6.72178430491814        0.56664963564563        0.54457549231100
O            7.60957990196751       -0.22840109718072       -0.14399545776771
C            8.94280732870084        0.04231966434500        0.06663090486952
C            9.89550335744944       -0.73425007506197       -0.58696680359549
C           11.26131776776083       -0.54388410315500       -0.43495719127044
N           12.15639957709134       -1.37961759062087       -1.09240392371730
C           11.78050468888461       -2.54731752444096       -1.88210432299989
C           12.97101029794843       -3.35419498848582       -2.37059906893085
N           12.58209805735268       -4.49368062829555       -3.17677481515009
C           13.46514874507876       -5.06822146181099       -4.05933895565230
O           14.64021924271869       -4.76960077934076       -4.11069189623452
C           12.87201044937878       -6.08960076391914       -5.00622453958482
N           12.09326604456814       -5.40928946996589       -6.03236987539130
C           10.78874587791338       -5.00130671059434       -5.80007872186932
O           10.20545183596010       -5.32933247295931       -4.78049165170337
O           10.24565352294893       -4.21689949590177       -6.78494061907399
C            8.87689354375611       -3.78827997326782       -6.54826132078613
C            7.95567754450229       -5.01010620483782       -6.43581886150954
C            8.80638147921297       -2.93131403195900       -5.27776214108443
C            8.45418582767131       -2.94112583323263       -7.75833425892039
C           13.93249078840836       -7.02631230106668       -5.61749761084882
C           14.71428416467231       -7.76616592861166       -4.53257246964133
C           13.28956123323102       -8.00114584796007       -6.60205347833071
C           11.71733102739793        0.51535654798633        0.41767779063713
C           13.08137850066317        0.79629624662606        0.61012625194291
C           13.48716257334019        1.81164434847371        1.43615497669313
C           12.55014295099443        2.59101292424543        2.10355393040879
C           11.21280898957253        2.34851963713880        1.93490378103653
C           10.76490325822284        1.31902978336508        1.09744923060262
C            9.35744065767938        1.08536165907684        0.93162068711047
N            8.48936588593943        1.85686676029551        1.59688315580348
C            7.17655732861138        1.59576655671067        1.40721906199453
C            6.21837834453318        2.36509626571453        2.08336374457518
C            4.86471872104619        2.15646993079757        1.93693468116337
C            3.89363294575036        3.00067151572127        2.68173646091269
H            0.53781179700645       -0.84546158478604       -0.65926759052176
H            0.56749505032889        0.87923557083215       -0.30385955741555
H            0.56515197421651       -0.28662404379956        1.01083028671278
H            2.85159646589508        0.08367015172752       -1.00574902983946
H            2.84864882483673       -1.08448673377654        0.30572634493811
H            2.35429255018142        1.47443615376548        1.36095481097439
H            5.03745474782086       -0.42224416839662       -0.26085371683605
H            9.53732516483184       -1.51449357456192       -1.22971245710058
H           13.15476947649959       -1.33994355461064       -0.90781515598351
H           11.18622216642757       -2.20950930344302       -2.73634103221930
H           11.12602165199763       -3.18199353723770       -1.27690509263184
H           13.56569256873752       -3.71778021942559       -1.52619281549637
H           13.63958243287009       -2.72759094713522       -2.97002792904466
H           11.57692700941316       -4.62275187921138       -3.33396151946984
H           12.16232541714673       -6.70560734505151       -4.43690945443792
H           12.63584673753711       -4.97718416783122       -6.77518944714356
H            8.24202890507090       -5.62326739995055       -5.58343070354120
H            8.03259051456244       -5.62506065538173       -7.33034802199685
H            6.91666821174818       -4.71037258206177       -6.30983235392248
H            9.10308992929677       -3.51656433407592       -4.40992022488311
H            7.79755710329984       -2.55770104149711       -5.10986025751640
H            9.48093771717264       -2.08095216738963       -5.35642699102198
H            8.51851620362672       -3.52974101924131       -8.67132056137033
H            9.11667086785214       -2.08488247062609       -7.86854006086829
H            7.43344623540461       -2.57757652633731       -7.65131613128305
H           14.63491039975954       -6.37963380675366       -6.16982357828669
H           14.05190611788811       -8.40167867909940       -3.94577886325334
H           15.19459733562184       -7.06621347641786       -3.84790251638623
H           15.48900549025112       -8.40182287575616       -4.96167858145992
H           12.57888880922764       -8.64940896867612       -6.09035718869379
H           14.03464335788174       -8.63797061322150       -7.07955406153408
H           12.74464922925029       -7.47337572159774       -7.38482139987113
H           13.82201406629430        0.21255185231497        0.09642036377786
H           14.53792200150933        2.00951590528338        1.56956537561933
H           12.87710799812496        3.38718693671505        2.75187929859370
H           10.48112170618997        2.94979355144672        2.44503135387153
H            6.56778206139526        3.14233066888468        2.73788631287234
H            4.40361129321067        3.72670899457073        3.31525480955239
H            3.26168365384728        2.38888736215978        3.32575116457438
H            3.25391866707470        3.55493757101757        1.99477485404397
