79
 energy: -13.095963886488 gnorm: 0.000960131905 xtb: 6.5.0 (97a52f5)
C            0.91882457396459       -0.36607782603921       -0.04798135334668
C            2.43367670566091       -0.38382882324462       -0.09175672505965
N            3.03061005558207       -1.08162220183107        1.04381595438759
C            4.39804624960169       -1.21720577005636        1.28207690273578
C            5.32713509762043       -0.72771979393456        0.36702777349229
C            6.69356248926393       -0.83493239072098        0.57320722404796
O            7.56468904279028       -0.32753737326125       -0.36291176326848
C            8.90222818603061       -0.46170856015067       -0.06872391656580
C            9.83699450364787        0.04780582775008       -0.96525678492782
C           11.20633881041585       -0.02900245612581       -0.75716658427494
N           12.08084965571186        0.52270814537214       -1.68566330344167
C           11.68090122824071        1.22634803035871       -2.89805855386761
C           12.81887360700054        1.99729302411028       -3.54566653447295
O           12.36557347149802        2.76996160509161       -4.63801591931975
C           13.08881636272182        3.91881475389165       -4.74630713023998
O           14.03007325062018        4.21674200961648       -4.04678059031896
C           12.62796300899147        4.87559232391515       -5.82311698090939
N           11.99595087984406        6.02600201001566       -5.19825702000564
C           10.61693506821249        6.15866968372437       -5.17900304844524
O            9.92243014413295        5.44157853037225       -5.87833765552273
O           10.13367464277357        7.12037840216055       -4.33111875080690
C            8.68449917727382        7.19995079465039       -4.26014252550409
C            8.10912815829253        7.56571893799424       -5.63442359830185
C            8.11155449143440        5.86557782048929       -3.76337721536639
C            8.34164715950541        8.30806559367672       -3.25274698192315
C           13.77433872717067        5.29176443353919       -6.76100587862706
C           14.42629650631440        4.07574440278604       -7.41795289534750
C           13.27935815564751        6.29317398610185       -7.80169497491789
C           11.68547525713842       -0.67560147877277        0.42989110926923
C           13.05512520869511       -0.80249654998760        0.72048191850480
C           13.48351656257724       -1.42541012932554        1.86326365490843
C           12.56445326553818       -1.94684989106540        2.76540589332406
C           11.22228960687100       -1.83826746741460        2.51560520461304
C           10.75111326756058       -1.20745822983234        1.35728846711536
C            9.33873860369160       -1.10005835971408        1.11824873409628
N            8.48633084026835       -1.60133390849419        2.02041619008655
C            7.16850656967926       -1.46547522418974        1.75069207697083
C            6.22480809404640       -1.95866855446094        2.66362823972764
C            4.86741940983987       -1.85025672198712        2.45580578327316
C            3.91242557890599       -2.38877674563538        3.45983465070196
H            0.49155824091775        0.15478187735896       -0.90696902544295
H            0.55890705408518        0.13228733749108        0.85290314538018
H            0.51621844938258       -1.37968639863099       -0.04206067541930
H            2.83061884093187        0.63780668769910       -0.10873666206908
H            2.78557498044010       -0.87029208281578       -1.00890382241530
H            2.34511899991823       -1.37581305929187        1.73516031891040
H            4.99179099226221       -0.24678039981646       -0.53107072011396
H            9.45899958614516        0.51290270606811       -1.85464356509059
H           13.08884843445990        0.42670366711104       -1.60117757440140
H           10.88092790179260        1.92875311904422       -2.64700968880405
H           11.25754321371557        0.50908263045638       -3.60773685190238
H           13.60753640137726        1.32699763141582       -3.90863027891917
H           13.27780778397165        2.67706082838576       -2.81651937876659
H           11.85339686404492        4.37028778554104       -6.41632399232921
H           12.56280992455308        6.49123059051419       -4.49479962315810
H            8.34482287428523        6.79185362865591       -6.36249154193234
H            8.53993613507813        8.49991397041651       -5.98857604099311
H            7.02708231868584        7.67797568350134       -5.59174137949996
H            8.35241613036745        5.06596138028723       -4.46118929778471
H            7.02902368416364        5.91516880569301       -3.65911508317647
H            8.54028518577588        5.60574123218061       -2.79748706671333
H            8.76676626304519        9.25602927978542       -3.57627111024252
H            8.76099762495162        8.07274536523872       -2.27659425776458
H            7.26482475674624        8.42900733815027       -3.14730754067699
H           14.52736617064864        5.78909016774442       -6.12653553854485
H           13.70404535580060        3.53512361906705       -8.02884857912192
H           14.81208679424887        3.38117566161739       -6.67127900528559
H           15.25401836640924        4.36769210637149       -8.06453842320123
H           12.51930376522530        5.84042081152612       -8.43772093755138
H           14.08972038171716        6.63706379195675       -8.44480483768606
H           12.82996340868127        7.16536509872296       -7.32655613549216
H           13.78273722766893       -0.40371000470193        0.03869216729040
H           14.53830945209577       -1.51186948859581        2.06595222989515
H           12.90928539706969       -2.43543320424635        3.66184467961902
H           10.50484116070204       -2.23833271629669        3.20997115161337
H            6.58866626649648       -2.43485510545549        3.55547441981356
H            4.43478019151648       -2.88718728432345        4.27670147422931
H            3.24165050327713       -3.11850644977050        3.00595102939795
H            3.31171124260274       -1.58859846736462        3.89248492588357
