89
 energy: -17.364748274678 gnorm: 0.000888399000 xtb: 6.5.0 (97a52f5)
C            0.81209344108401        0.41733340226793        0.72132807852688
C            2.18865105934048        0.23519052280319        0.06273680585805
C            2.08824423592745        0.20599910310887       -1.46955684126110
C            3.18324646726111        1.30748388302953        0.53823763901948
C            3.10431853290011        2.66874397212559        0.41250840417320
C            2.07127435904239        3.36911558020895       -0.22885453139658
C            1.95607523966554        4.74237926983137       -0.32505972515795
C            0.82076696228561        5.27513812131169       -0.95973338463306
Cl          -0.32313185626405        4.17529150145723       -1.64555861567141
C            0.55670213149905        6.65220338166769       -1.05445332983687
C           -0.61562080029635        7.05858194134647       -1.66181036733197
C           -1.07080636240959        8.38130577455262       -1.77394762959873
C           -2.21577472665376        8.77721733338612       -2.41214483499939
N           -2.65612634671846       10.09700474615214       -2.48764238950065
C           -1.93673356277363       11.25209302527759       -1.93519689966412
C           -0.82990085277246       11.72821489693146       -2.86436338059857
C           -0.03851362048301       12.89044807220829       -2.30513477106426
S            1.28805375342550       13.40405420890189       -3.46867167058223
O            2.09581585913596       12.16497731328579       -3.65501507645500
O            0.53580613712287       13.86569564444828       -4.66964399525076
O            1.97478714272982       14.48521145892366       -2.71055603987373
C           -3.82073487108759       10.23124199946045       -3.27873700926576
C           -4.54616068396431       11.36164514535085       -3.63644245517043
C           -5.65925096163526       11.21109535219596       -4.43717278415407
C           -6.04943785171900        9.95497958627555       -4.87913971857576
C           -5.32776698974859        8.82621914104897       -4.52809156775102
C           -4.21273899743747        8.96825336475593       -3.72805488213685
C           -3.22522969898097        7.92530563244382       -3.19958190163682
C           -2.55135692154852        7.21037042285112       -4.38085722395667
C           -3.96106195759735        6.93868590929594       -2.28048057897154
C            1.53659793245200        7.64113008113839       -0.48183102620823
C            2.96409781036834        7.07660446683119       -0.36324579794983
C            2.99137065182706        5.66760908544110        0.25741453710725
N            4.22050643441943        0.63804730748717        1.18473484408692
C            5.32181460939537        1.29651917513143        1.89942925668687
C            4.89670518654778        1.76153532953223        3.28463307330965
C            5.99807025654896        2.46605057811305        4.04596484445381
S            5.40055447982360        3.03009512103854        5.68996184468383
O            4.39852092257944        4.07922726371255        5.34322587293416
O            4.84575891909801        1.79603118648759        6.31711400557539
O            6.64537601067415        3.54291322358629        6.32489244421419
C            4.01357292241267       -0.76057643040375        1.22723627735292
C            4.77262150950854       -1.77074614809857        1.80660275077057
C            4.33106322058813       -3.07387338974654        1.70836801992988
C            3.14951879720864       -3.37353788812185        1.04547950169307
C            2.38758784461347       -2.37021459850286        0.47025299282514
C            2.82277981578508       -1.06429057745873        0.56353722538810
H            0.33212983403110        1.34343738843691        0.41363055142503
H            0.90999864971062        0.43481893243479        1.80607185242476
H            0.14699980885325       -0.40399123495627        0.45811105140532
H            1.66944148376829        1.12854187205730       -1.86546110959086
H            1.45447176574828       -0.61617744810086       -1.79920751824846
H            3.07404186393271        0.06805832313220       -1.91183221793662
H            3.88906829298847        3.24848327880136        0.86031386719124
H            1.28316806325639        2.79852971901910       -0.67851782670967
H           -1.23551541493382        6.27891463424174       -2.05791327315265
H           -0.47837386257746        9.14688566924641       -1.30958341860277
H           -1.53378334563603       10.98176417812743       -0.95542056253737
H           -2.65229356421220       12.05626151708121       -1.74446727989351
H           -1.26216943022327       12.00318954462702       -3.83473154439408
H           -0.15410197333918       10.89261163142627       -3.08528959413775
H            0.42597762911870       12.62765398390187       -1.35488128026380
H           -0.68181325960415       13.75019171702539       -2.11880992060714
H           -4.23607521143868       12.33325552709963       -3.29606002127999
H           -6.23079693262631       12.07848285361343       -4.72368575115311
H           -6.92251056130645        9.85613740797050       -5.50316155984436
H           -5.62319346925489        7.84990358342540       -4.86962167055337
H           -2.04423753445551        7.93120378471348       -5.02104808476854
H           -3.28920770685705        6.68500952494052       -4.98566778925958
H           -1.81534156632291        6.48198794955715       -4.04797422238582
H           -4.42957712820311        7.46890909529114       -1.45232400266596
H           -3.28823927403442        6.19297134523411       -1.86308616540600
H           -4.74275002027436        6.41243110469014       -2.82668890674414
H            1.17870641886101        7.96159059127175        0.50344933413491
H            1.54765543420344        8.54272803259494       -1.10612243129433
H            3.59555888195898        7.76092969678435        0.22042725171888
H            3.42036592358298        7.03992072593621       -1.36026280287329
H            2.83405287338327        5.73395665147003        1.34025879378625
H            3.98652034413694        5.22639663391411        0.12517193073242
H            5.68149995325171        2.13633338797189        1.29885956413987
H            6.16466468304275        0.60378580035549        1.96725148401432
H            4.53583541278139        0.90097863697346        3.86198105286180
H            4.02647887491239        2.42383534349274        3.19652265834891
H            6.35699030571918        3.33755552360532        3.49876441723805
H            6.85454302504343        1.80951005037411        4.19792130452377
H            5.68435212641771       -1.53354376403123        2.32475529383390
H            4.90902884455393       -3.86737158540501        2.15269024606074
H            2.81906388428847       -4.39720712371705        0.97982013852077
H            1.46772029448478       -2.59558797739376       -0.03983182778397
