97
 energy: -17.572984146799 gnorm: 0.000575309771 xtb: 6.5.0 (97a52f5)
C            0.62082016538134        0.16822320116671        0.73837503143784
C            1.95456434623426       -0.08205269612156        0.01669812240234
C            1.76914729640600       -0.19263500272802       -1.50502581840453
C            2.99417152461721        0.99006404373456        0.37580676163729
C            2.92475686148529        2.33856780506754        0.15030209021759
C            1.86815417610635        3.03135620569290       -0.45717861044274
C            1.75777243185268        4.40611616389147       -0.54095473459256
C            0.60625077134766        4.94813384478865       -1.13253946548643
Cl          -0.54264886895263        3.86136442870964       -1.82330688296432
C            0.32859974574610        6.32287895691170       -1.17929451854773
C           -0.83758107933560        6.73754668063131       -1.79207803351559
C           -1.28582278275577        8.06274511616602       -1.88090823025912
C           -2.37150466731317        8.50097790243103       -2.58931463689925
N           -2.75977407878885        9.83604867478216       -2.67382315582405
C           -2.07837684882525       10.94629270481080       -1.98382164729659
C           -0.61739492948200       11.00702934118531       -2.29214677946895
C            0.31698592096092       11.22770791158614       -1.29129750095680
C            1.66367371078733       11.22137505363205       -1.57768766101576
C            2.10664154392592       10.99893494522986       -2.87093071934619
C            3.55948738569551       10.97242919562507       -3.17435391129865
O            4.37638247034423       11.11758217343788       -2.28592769106511
O            3.91515174591492       10.77752191322339       -4.46966308701221
C            1.17437484340388       10.79368148320295       -3.87424196392456
C           -0.17198409132987       10.80032659675667       -3.58680600000081
C           -3.86931877698770       10.01874843938749       -3.53228264057230
C           -4.55548602245031       11.17044921575149       -3.89878498292256
C           -5.61958065727687       11.06252229223431       -4.76828175167858
C           -6.00190518908980        9.82864766670159       -5.27109882256119
C           -5.32211960448652        8.67876134582219       -4.91056141080014
C           -4.25617981208041        8.77697634691508       -4.04127421661306
C           -3.33333412410783        7.69644512051749       -3.47543957180491
C           -2.58532698393752        7.00275939424462       -4.62479394873486
C           -4.15377742733338        6.69871512153042       -2.64348970027817
C            1.29354524952255        7.30006661092852       -0.56350093944741
C            2.73450042034650        6.76443412590019       -0.48889077162241
C            2.80765423350706        5.31880062077587        0.03512632910864
N            4.04111434585466        0.34154584297938        1.03557996107379
C            5.30462165453472        0.95697105390574        1.49506184578091
C            5.13701089252499        2.30580230091189        2.11515359706764
C            4.19935526495421        2.50145561744090        3.11589448685742
C            3.94496068120556        3.76375415576229        3.60372947115958
C            4.63355726787474        4.85826646515342        3.10407525790520
C            4.30066510224176        6.24300094118869        3.55366881370659
O            3.94049708015015        7.05640451131294        2.72238932747200
O            4.42450993359816        6.50980033011655        4.88417220117180
C            5.59484172605155        4.66187738195895        2.12601539151748
C            5.84677319421000        3.39926916257805        1.64025803807213
C            3.82023650478042       -1.05335069050047        1.13258815795306
C            4.60595520885066       -2.05864756791452        1.68459282757574
C            4.14777416244589       -3.35815450470620        1.64810256100393
C            2.92513542818081       -3.66285809045891        1.07070544134635
C            2.13994962421802       -2.66744055127266        0.51691751090839
C            2.59091023319772       -1.36460657811058        0.54894991747994
H            0.14565958827527        1.08812643573483        0.40606860077190
H            0.77972002288222        0.24206486141070        1.81316005506271
H           -0.07499699934857       -0.64951783880472        0.55750620465987
H            1.34595717560829        0.71460604578427       -1.92943606752260
H            1.10378108695716       -1.01790304723656       -1.75368178620264
H            2.72655927276009       -0.37511167134342       -1.99092713521736
H            3.73872203889354        2.93185041265532        0.51259511096558
H            1.05524536730186        2.46459949739548       -0.86558907571678
H           -1.44261795533044        5.96792534386151       -2.22918430035987
H           -0.71741511172991        8.80783284692355       -1.35942683772747
H           -2.23901801371992       10.82228406695775       -0.91008311289876
H           -2.54917208949748       11.89022350050592       -2.26295577638318
H           -0.01904531685888       11.39355648004763       -0.28235283884530
H            2.39161055253189       11.38363170782055       -0.80145459251729
H            4.88399128027934       10.78101565365312       -4.51878505612786
H            1.52123985921700       10.62103291927660       -4.87838350798602
H           -0.89558620062364       10.61994215557723       -4.36267399550488
H           -4.26026116845116       12.12704322800350       -3.50846734353725
H           -6.16093673548994       11.94735787876163       -5.05995960234391
H           -6.83667559094297        9.76351385157401       -5.94909231219708
H           -5.61391769791543        7.71859332825226       -5.29756502512269
H           -2.01285994152464        7.73028617832305       -5.19835596428038
H           -3.28470356545034        6.51599221065987       -5.30266682833315
H           -1.89489160426189        6.24595665285945       -4.25985786805434
H           -4.67695649260727        7.21552365168525       -1.84022887783422
H           -3.52563891359697        5.93220858850321       -2.19569016197951
H           -4.89796277362218        6.20004965655563       -3.26248121437429
H            0.94030041197384        7.55796831311313        0.44121677151595
H            1.28018473796988        8.23349196091193       -1.13781619472748
H            3.34693519822970        7.42110636366510        0.14476003505994
H            3.18871190113828        6.81166806926174       -1.48581752792323
H            2.71004505165775        5.31942165591618        1.12655153013662
H            3.79944612685602        4.90441280947086       -0.17886137939633
H            5.97799793105641        1.01180759788152        0.63635069250835
H            5.77633121014839        0.29243331089214        2.22115619305400
H            3.63997831239374        1.65615762859124        3.47782438951193
H            3.18565853699185        3.91577375834180        4.35103068829492
H            4.75709417843761        5.73050205309822        5.36872256623010
H            6.12370070774897        5.51432954624189        1.73559222023265
H            6.57814013982794        3.25752048267752        0.86334089655659
H            5.55664602469845       -1.82479241837299        2.12747688001718
H            4.74739962150391       -4.14646329202008        2.07250674556264
H            2.58323754421418       -4.68435555632871        1.05098131454819
H            1.19143508770949       -2.89762960369710        0.06505015103975
