91
 energy: -16.288573931358 gnorm: 0.000686395822 xtb: 6.5.0 (97a52f5)
C            0.70612180288434        0.52999271337285        0.74911416820938
C            1.96139989867200        0.07867379933609       -0.01415669412403
C            1.65284842882468       -0.23525243157880       -1.48559345198383
C            3.09230570767083        1.11096806366433        0.10951799334639
C            3.11610179832483        2.42032011440118       -0.28768306384311
C            2.07268397141425        3.10153389698278       -0.92965367657820
C            2.08325715632547        4.43182794884235       -1.30087145165722
C            0.91752667535719        4.97868103805361       -1.86032607104260
Cl          -0.44595799945848        3.94297860080893       -2.07417781728430
C            0.79075974783958        6.32626288041823       -2.23388625915112
C           -0.43661508600241        6.76851340167997       -2.68713806603799
C           -0.74751574055793        8.08692234814256       -3.04686455796902
C           -1.98300985523374        8.55123299804444       -3.40846837898458
N           -2.24430708879509        9.87600089570159       -3.74726820880211
C           -1.21972941266141       10.93290671014813       -3.78909742969772
C           -0.56862108564327       11.14973386356878       -2.46196864864211
C           -1.32568975086218       11.12057470825073       -1.30376057645846
C           -0.73387438690074       11.28909347201429       -0.07122948423136
C            0.62973199850056       11.49533041627104        0.02733142680920
F            1.21575893239705       11.65394940251873        1.24093097331045
C            1.38935218778937       11.53407768461695       -1.12735691323342
C            0.79679762100267       11.36524824081823       -2.35977232464925
C           -3.61790126110961       10.10876981345054       -3.99141835678503
C           -4.29696350648533       11.27427140359936       -4.32574889214046
C           -5.66260154050359       11.21929180000429       -4.50510797724465
C           -6.34958757497931       10.02440532525895       -4.35567671925320
C           -5.67854263738985        8.86098332095867       -4.02228778042695
C           -4.31239722541298        8.90632092131843       -3.84030949169034
C           -3.32306991047685        7.80263509877774       -3.46067162361478
C           -3.31237413779562        6.71697002558429       -4.54715523773516
C           -3.69728188152087        7.22882335593854       -2.08507823516977
C            1.96410339447625        7.25885415120425       -2.09103413555354
C            3.31900364307060        6.53040390227734       -2.02239736931091
C            3.28805998179352        5.30776690167328       -1.08708723481664
N            4.14819132070186        0.48008110032643        0.76118916402597
C            5.38798166251228        1.16285869991845        1.16536193290158
C            5.13742955927264        2.22737422416626        2.18321869830030
C            4.22779165024251        2.00968396207875        3.20343646225019
C            3.97214351298109        2.98652649998086        4.14037299765452
C            4.62532347719402        4.20340692887898        4.07714662780191
F            4.36724220845231        5.17122164496133        4.99263203147074
C            5.54100688882264        4.42310700753756        3.06456622507423
C            5.79589157280116        3.44562857636629        2.12728298123305
C            3.84367442631171       -0.85573310610092        1.11188973193810
C            4.59269594256226       -1.80983733214580        1.78994730235142
C            4.04029683163298       -3.05305030349927        2.01210489369027
C            2.76020140811342       -3.34945892220980        1.56972032130776
C            2.00928275191492       -2.40233237638688        0.89582776929527
C            2.55438146678465       -1.15649941554569        0.66694032598413
H            0.26384133576746        1.42268908378234        0.31360721972056
H            0.95215085913384        0.74989268423118        1.78694980985328
H           -0.05112837559332       -0.25241956832471        0.74240092403111
H            1.26254565544821        0.63404214535782       -2.00998354110730
H            0.91483191110897       -1.03203899467019       -1.56417317484788
H            2.55526146793449       -0.56106137806145       -2.00090734093474
H            3.99986225637723        2.98128550933227       -0.05099324870978
H            1.17113564940391        2.56062003504148       -1.13877366856763
H           -1.21369230791452        6.03220904035104       -2.74385343436424
H            0.04383506926444        8.80980075085948       -2.99791190786326
H           -1.67202293965422       11.86426781212054       -4.13380711061876
H           -0.47688757063920       10.65232219701695       -4.53994367742289
H           -2.38496148955151       10.94697131462306       -1.37988953107819
H           -1.31907451355225       11.25894939566667        0.83051289434979
H            2.44896138695567       11.69751467197168       -1.04272054227528
H            1.39433962933270       11.39696845865578       -3.25440274999744
H           -3.76446693629441       12.20080301504271       -4.43904775739864
H           -6.20221404401424       12.11552768553296       -4.76313366108328
H           -7.41707766860923       10.00100200950680       -4.49933753768937
H           -6.20650834113446        7.93154173118660       -3.90305902871173
H           -3.05106769098668        7.14849791566475       -5.51228020451954
H           -4.29401937875492        6.25502643916455       -4.64019116242283
H           -2.59352783891886        5.93149094000353       -4.32547006649061
H           -3.70119822343585        8.01723912624023       -1.33385595174246
H           -2.99860161877668        6.46077934658488       -1.76186203393902
H           -4.69105455793597        6.78454712117958       -2.11044916702581
H            1.82159723343059        7.86592465589758       -1.18993673950938
H            1.96908720267135        7.96317654917817       -2.93096720023905
H            4.10745984118056        7.22742798740846       -1.70736538060834
H            3.60398300637201        6.20467892123124       -3.02999548803993
H            3.30156312365341        5.63736707571026       -0.04215700826056
H            4.19842852294947        4.71393280513294       -1.22865243476978
H            5.85154568900646        1.58540746867257        0.27060809133403
H            6.09362245188192        0.43054037592283        1.56137285849107
H            3.71128304034544        1.06668010284600        3.24551251763618
H            3.26148569889292        2.82117480762708        4.93042634462185
H            6.04600104587951        5.37172282937971        3.02272389200448
H            6.50785769683573        3.62554453134146        1.34039298308489
H            5.58377495020438       -1.57819156537703        2.13494504779160
H            4.60940669625797       -3.80276393407279        2.53647480977366
H            2.34443221092124       -4.32612408484432        1.75416173521390
H            1.01409231962363       -2.62507098850842        0.55402572346524
