95
 energy: -17.286183359794 gnorm: 0.000575100870 xtb: 6.5.0 (97a52f5)
C            0.53369556186852        0.36749218491035        0.75418172894598
C            1.88657230731989        0.11309600896134        0.06986325297017
C            1.73921918269695       -0.03380303860355       -1.45313712127710
C            2.91030955206323        1.20144393376973        0.42757315813067
C            2.84247343241223        2.54072612604774        0.15019129473005
C            1.78314882539986        3.20912882323376       -0.48060852495213
C            1.65789567780952        4.58000527630743       -0.60004838957804
C            0.48576356463768        5.09679948036872       -1.17463224835499
Cl          -0.67264017992374        3.98463348102236       -1.80460489852422
C            0.19295628447744        6.46750697293476       -1.24277722530242
C           -0.99764810151766        6.86697039746673       -1.81899201279744
C           -1.44005851821129        8.19496983549781       -1.91098204785487
C           -2.52240536570769        8.65207418128670       -2.61328066372693
N           -2.86551538259938        9.99808987818922       -2.75212517082459
C           -2.16666419377560       11.14409877350823       -2.13309822501557
C           -0.67593930630445       11.04052021771600       -2.17310096192849
C            0.08371175873139       11.27113025282408       -1.03465874830785
C            1.44432614180427       11.05993421960670       -1.04690248070472
C            2.06620788769962       10.61450680149224       -2.19573327521316
N            3.49241509021041       10.27936390934291       -2.17117540983276
O            4.25183839862354       10.96213429595987       -1.46888528754856
O            3.88244700232735        9.31187729250496       -2.84141746119992
C            1.32469511476146       10.41604828861498       -3.34327949606784
C           -0.03486290895567       10.63625881743075       -3.33340289454918
C           -4.02737386040652       10.17021416269815       -3.54133479624181
C           -4.71786052965018       11.32273653081816       -3.89801222517878
C           -5.84226995462614       11.20769649180027       -4.68677429256737
C           -6.28142818824485        9.96590641685196       -5.11821186416079
C           -5.59984558108736        8.81508648397501       -4.76439851017051
C           -4.47366638952897        8.92058935808831       -3.97557467531336
C           -3.53924981170623        7.84142140233028       -3.42959070923698
C           -2.86007077554149        7.10858957144143       -4.59735227546945
C           -4.33136015967264        6.87662987795282       -2.53300916604155
C            1.17727458731062        7.46677924149684       -0.69908155168106
C            2.62061613310512        6.93732173411014       -0.65493865369534
C            2.70509087041494        5.51876798245449       -0.06436536746647
N            3.93503864560792        0.57901045173956        1.14611840114166
C            5.17012826960453        1.20771541749885        1.66298354896089
C            4.99299492373577        2.60161707609713        2.16956493409041
C            3.98063275510675        2.89336227737934        3.07021827164652
C            3.72715682315802        4.19510056281373        3.44120494187406
C            4.49511691706571        5.22116669415209        2.92758602202882
N            4.14674078956998        6.61740895078364        3.21454076580177
O            3.09612911564975        7.06753686720034        2.73303080028237
O            4.91643705636667        7.29137790851943        3.91391894058689
C            5.53458384098463        4.93812860197109        2.06490314645557
C            5.78191715708411        3.63740548350138        1.68843898872065
C            3.72285181295907       -0.81520035151244        1.26663448577091
C            4.50275430337770       -1.80066591052791        1.86112223558839
C            4.06189367503959       -3.10624013591917        1.83276870814997
C            2.86321191118179       -3.43630358795358        1.22030575028317
C            2.08496039227300       -2.46090238660576        0.62289765282923
C            2.51803490727987       -1.15183132299545        0.64778061072848
H            0.05847321388858        1.27634699710996        0.39315464433897
H            0.66603552146843        0.46340252755967        1.83086377810314
H           -0.15126969383058       -0.45937616820721        0.57300136548327
H            1.32253085710174        0.86124685637584       -1.90889632092845
H            1.08448916693953       -0.86825025649616       -1.69932270179831
H            2.70942231823745       -0.22202366057585       -1.91074160600355
H            3.65298372149201        3.14863021897041        0.49608339774966
H            0.97085862370155        2.62561090871064       -0.86601379816280
H           -1.61368365666970        6.09139444065233       -2.22932637011078
H           -0.85558308793422        8.93162823362702       -1.39708968471085
H           -2.51679072810161       11.22713087581631       -1.10142052826782
H           -2.47027776124205       12.05965626409947       -2.64335968045986
H           -0.40254479990869       11.59412530255743       -0.13037199658461
H            2.03540869324778       11.21893991960018       -0.16135783192759
H            1.82017432550723       10.06191265053440       -4.23085970233814
H           -0.62163214588062       10.45492837549193       -4.21721533422869
H           -4.38263612906294       12.28542597614616       -3.55809312933294
H           -6.38699542774736       12.09321559840367       -4.97018616180455
H           -7.16293560421046        9.89528697508616       -5.73365989537558
H           -5.93713379567295        7.84865074000233       -5.09473783752197
H           -2.31209114843232        7.81419308165228       -5.22011815504730
H           -3.59970379974074        6.61212215105392       -5.22356970547126
H           -2.15843648640413        6.35432684162931       -4.24881152900594
H           -4.80479568515392        7.42075418732106       -1.71699732646660
H           -3.69309307222970        6.11047737945407       -2.09927538034330
H           -5.11359234394330        6.37556602407444       -3.10105512047480
H            0.85991958114008        7.76635439304459        0.30609912071572
H            1.14067580286016        8.37169963978765       -1.31475021006856
H            3.25540259890170        7.62376073910595       -0.07775077700106
H            3.03804697630654        6.93805456818939       -1.66929450348896
H            2.59910271421940        5.57032807577540        1.02523398301656
H            3.69948721063857        5.09988615576718       -0.25566480810182
H            5.91329396260668        1.18364644179700        0.86248900406114
H            5.56082529703928        0.58945198007032        2.47330589446602
H            3.36608237122602        2.09171322435287        3.44181271036944
H            2.91611132205881        4.42980823106244        4.10870709262107
H            6.13001084219576        5.74711697560064        1.67804541762489
H            6.57655663924041        3.41965077467063        0.99584988013944
H            5.43672491912843       -1.54723903907794        2.32833873368847
H            4.65675686462227       -3.87942954057000        2.29047274003856
H            2.53481046024529       -4.46235324584138        1.20712468687461
H            1.15545989984502       -2.71134407494694        0.14310663686442
