108
 energy: -21.179608119574 gnorm: 0.000983321756 xtb: 6.5.0 (97a52f5)
C            0.62193440373811        0.39694477796150        0.57575071570158
C            1.94361005428357        0.22462786957090       -0.19018886203562
C            1.72278318030237        0.19883093258665       -1.71014906016703
C            2.96630177556364        1.30186570810766        0.20837552453113
C            2.84968545501745        2.66278929522345        0.12682630291167
C            1.74552901571993        3.34989767724740       -0.40380816805338
C            1.54531442111497        4.71170200475214       -0.38055511990736
C            0.35517946323947        5.20622582332844       -0.97327708891260
O           -0.50146379268872        4.26722979243393       -1.59424097317037
C           -1.82703049562946        4.07048351245892       -1.15660560083015
C           -2.75470600199430        3.66589299407783       -2.12133191632027
C           -4.07246791625784        3.44761490154168       -1.80061656754743
C           -4.51698967118235        3.61404085656992       -0.49848891459633
C           -5.95781458564514        3.40245397064432       -0.14335909388846
C           -6.80865497353496        4.65551550781282       -0.33780641157380
N           -8.14033501778931        4.48365596309218        0.02739080066529
C           -9.05002127385755        5.34057118028606       -0.05174843003819
S          -10.17701823284576        6.44152741597962       -0.15995734778154
C           -3.60129542000099        4.01324501307928        0.46610757161780
C           -2.27037929054342        4.22813040916402        0.16996594563497
Cl          -1.20769895529683        4.61672653072168        1.51119928750155
C            0.04076952480986        6.59003290457052       -0.98050243308954
C           -1.09819182160339        7.00661616349824       -1.63366268174701
C           -1.51348692308418        8.33989729356156       -1.78683893999723
C           -2.67201476948074        8.74747171532101       -2.38990986221501
N           -3.06353030671014       10.07733610085668       -2.52764511401228
C           -2.26283317982665       11.23517135687879       -2.10835428417600
C           -1.19958334003261       11.59223650552445       -3.13653078174949
C           -0.35156980835261       12.77854061664253       -2.73171876711323
S            0.92618655244098       13.13893511605433       -4.00294422841487
O            1.76173539574421       11.90512352590365       -4.00987762709881
O            0.13294742219873       13.38380479500402       -5.24072041269116
O            1.59756521165138       14.34373935078353       -3.44464385161510
C           -4.29838244924897       10.20744492030660       -3.20529539733952
C           -5.01802100684628       11.34002467818834       -3.56721439369878
C           -6.22122203225372       11.18147932913105       -4.22279167076186
C           -6.70581995530174        9.91542603895818       -4.51820872298301
C           -5.98976742295975        8.78420639616673       -4.16465903956471
C           -4.78493442061875        8.93450678463269       -3.50991485039282
C           -3.78267386486740        7.88972020012207       -3.01599991776935
C           -3.26125065157712        7.07669644362814       -4.21131464875585
C           -4.44880717279197        6.99431790542252       -1.96306483290391
C            0.94984861024299        7.57636881743204       -0.30018600951602
C            1.84302247446119        6.94020407828764        0.77789626408846
C            2.51313184124721        5.64907286920681        0.28179868196974
N            4.06216926202164        0.63734607603632        0.75446915832252
C            5.21512700948225        1.30072266356543        1.37724788332208
C            4.91426085950298        1.73687561078285        2.80380784700573
C            6.07216844059550        2.44856722873877        3.46899996612585
S            5.62907317699029        2.96987462395069        5.17486982033139
O            4.45564796849105        3.86652849765454        4.97345529336963
O            5.34031478694630        1.68285202288102        5.86812601210426
O            6.86873665636558        3.65695260773513        5.62709073172158
C            3.86766385354518       -0.76252679931176        0.81038409273520
C            4.68180426636325       -1.76895924475762        1.31626259879838
C            4.24353388967875       -3.07502648891887        1.24945350722975
C            3.01172175783128       -3.38073002282663        0.68907253740734
C            2.19462504631282       -2.38080471779435        0.18891669471844
C            2.62528498293310       -1.07173065141052        0.25258922292274
H            0.11405792254139        1.32134861729868        0.31034401072048
H            0.80514138919161        0.41272966323024        1.64933490619776
H           -0.05745528133612       -0.42727867159172        0.36325514640910
H            1.26733941251435        1.11872893486207       -2.06994028478172
H            1.07107551039063       -0.62730742447286       -1.99120999411772
H            2.67175557244217        0.06930574424013       -2.22894414139260
H            3.66411793511917        3.25068105787149        0.50575175585091
H            0.96762095691897        2.77310832667859       -0.86550234460743
H           -2.41002453290886        3.53289467877454       -3.13143905115615
H           -4.77248504978694        3.14702384588855       -2.56110073820426
H           -6.03417976472660        3.06737821689298        0.89667471775172
H           -6.36927529583903        2.58273101855860       -0.74214774980766
H           -6.77666441848533        4.97174124403877       -1.38697075462680
H           -6.39265276179047        5.48619974026300        0.24516932339359
H           -3.93071734989403        4.14726230309973        1.48171841803490
H           -1.70837836129163        6.23862842800550       -2.06436662236964
H           -0.86198838279870        9.10624586838578       -1.41174381742636
H           -1.80996274636391       11.01907210278187       -1.13701590570494
H           -2.93122825025539       12.08282094788325       -1.93648833204150
H           -1.68038707471914       11.79016796976284       -4.10292759547751
H           -0.55700273472852       10.72117097290843       -3.31602450033824
H            0.15401705501227       12.59353717639188       -1.78414632601077
H           -0.96265572219588       13.67100101915710       -2.59825783377296
H           -4.63636686404103       12.31936894247253       -3.34078904478025
H           -6.79124618933897       12.05013223748142       -4.50834677398304
H           -7.64876350593146        9.81023324569334       -5.02921068070259
H           -6.35840824484056        7.79975594793148       -4.39315397971325
H           -4.07812223639209        6.55429806059962       -4.70735567618605
H           -2.52748634882698        6.33278658645862       -3.91078849411655
H           -2.79171678511587        7.73482740035137       -4.94128435702032
H           -4.84892683956541        7.59677222460572       -1.14860531160310
H           -3.74671488116112        6.28202604940404       -1.53640536608260
H           -5.27091745641148        6.43359736241205       -2.40420881271797
H            0.34464351657915        8.37233785458770        0.15040703272252
H            1.57174639329319        8.06439624896155       -1.05971775063805
H            1.23468326291124        6.71287976173806        1.66221283237875
H            2.60152902587410        7.65820839320363        1.11964223914719
H            2.99756731441768        5.13965344899110        1.12324160712040
H            3.31419884190617        5.89023857960399       -0.42657593753950
H            5.50613393922821        2.15527611253993        0.76045009339474
H            6.06963517101453        0.61933194300850        1.35493189219570
H            4.62325269692399        0.86163783991020        3.39848020591395
H            4.02920481874857        2.38536447929628        2.80885661402833
H            6.36218403140541        3.33596452341181        2.90673404121548
H            6.94966866229580        1.80465649144407        3.52398357584639
H            5.63283532375384       -1.52592776721252        1.75503175963596
H            4.86441661354885       -3.86575479648802        1.63712646252328
H            2.68550678392490       -4.40688638413624        0.64492823387629
H            1.23617292275821       -2.61119401605060       -0.24171112980811
