108
 energy: -21.138981718309 gnorm: 0.000850171470 xtb: 6.5.0 (97a52f5)
C            0.89086872889166        0.13229058441610        1.63676671384446
C            2.07189388774351       -0.14498577205402        0.69373257889393
C            1.59994732383412       -0.43318241329061       -0.73982456112781
C            3.09509466597895        1.00269933816437        0.72808678585002
C            2.91786306423368        2.32191570846868        0.40616349846659
C            1.72907328531947        2.89899928605149       -0.07186020320745
C            1.55746374103145        4.23165117615400       -0.38444178149157
C            0.31280823680055        4.67537041671052       -0.93021338540699
C           -0.83041176316337        3.73313791437357       -1.01016280941617
C           -1.41619521724559        3.40895772108983       -2.24326204141529
C           -2.49276103638128        2.56338927126320       -2.31155020649419
C           -3.02936109061663        1.99670147763632       -1.15944564237204
C           -4.21678268087876        1.10797671439631       -1.26506608742444
O           -5.04501025397886        1.33134767635544       -2.13467387810987
O           -4.31542143534312        0.06673284955351       -0.38235403862266
C           -2.45693893592760        2.31143751369618        0.07110845898117
C           -1.37971890639390        3.15729864077719        0.14563936966750
C            0.15881266068528        6.00466631931218       -1.43066002973489
C           -1.07684916636523        6.43334138546125       -1.87058508679659
C           -1.36239406716421        7.67682533453681       -2.45988216541314
C           -2.60875997108872        8.12069455609204       -2.81394269397254
N           -2.85986079750217        9.35128914391716       -3.40438509507468
C           -1.83739440121757       10.36464271795334       -3.69953762703414
C           -1.46271244544680       11.17112869217625       -2.46647321280595
C           -0.36326040301322       12.19861231122460       -2.73451420225009
C            0.04019639226523       12.97625377271013       -1.49998434121112
S            1.36708493836610       14.18767362962543       -1.88762832527853
O            2.44635093235294       13.35414192001667       -2.48973513978258
O            0.69928662383823       15.13717653272448       -2.82218926385799
O            1.68639318215933       14.75063102767870       -0.54798444165823
C           -4.24380456643472        9.59127568976407       -3.58262350364634
C           -4.91137113338216       10.69830644106813       -4.09164260540255
C           -6.28887804760901       10.67231138328112       -4.15315805051735
C           -6.99739199033339        9.56406052664667       -3.71367684880845
C           -6.33612009785003        8.46117820508533       -3.20129813563606
C           -4.95823248307777        8.47795145782942       -3.13656510747570
C           -3.96997193764508        7.43162456825323       -2.61657573747514
C           -4.07970835225071        6.15390746694688       -3.46299735089746
C           -4.24806188191606        7.15431330245864       -1.13060052294724
C            1.34237286163155        6.93091142357366       -1.44069912771069
C            2.28969573225526        6.67162624973967       -0.26189622711791
C            2.69972417778068        5.19377068195927       -0.18583520455127
N            4.28825103478875        0.46741548221088        1.19325876449901
C            5.50247632808044        1.24398071894529        1.47959008437254
C            5.42898444324579        1.92782706221531        2.83538264605561
C            6.66648227274552        2.76705468679353        3.15271487504323
C            6.58733894109348        3.45817307417381        4.49733113484705
S            8.10112123958218        4.44858585574276        4.82157810912177
O            9.19666366697522        3.43893664844655        4.78099141835528
O            8.11021260735396        5.44780684913148        3.71560518622753
O            7.82760908627707        5.01420169423446        6.17024513272423
C            4.17543910854465       -0.90811230050501        1.50875901036205
C            5.10971668290500       -1.79708550438839        2.02576753744312
C            4.73245812464687       -3.10603301195192        2.24083765136353
C            3.44445837626308       -3.52972464718123        1.94917737572471
C            2.50924249502541       -2.64585014210681        1.43890007927882
C            2.87763994804737       -1.33436017478402        1.22119782427633
H            0.29361959735932        0.97668957260567        1.30078707097865
H            1.25039523612007        0.35350453827566        2.64096074208523
H            0.23606631824674       -0.73569319840651        1.69914283998134
H            1.04944930482536        0.40462276916355       -1.16177760571705
H            0.94782794268414       -1.30526696119473       -0.76332453267234
H            2.45267228878459       -0.63384299423829       -1.38719987932744
H            3.76743721866457        2.96785567341371        0.51880517018427
H            0.89460887763131        2.24693286481475       -0.23725443262906
H           -1.00243421532324        3.83373311032223       -3.14167947140478
H           -2.94308241624061        2.32845639571873       -3.26068645680157
H           -3.52443720889701        0.01228235144779        0.19051953730469
H           -2.88772207819039        1.91214331793541        0.97244827007090
H           -0.95608054202345        3.41236593736297        1.10180302632390
H           -1.89505720377348        5.75065141454043       -1.75383373907904
H           -0.53631863018878        8.32888093570276       -2.66878175389559
H           -2.20696993946774       11.02069348498195       -4.49173190736597
H           -0.96027662719553        9.86527799791540       -4.11969471694820
H           -1.14583587952424       10.49082220198428       -1.66807602495079
H           -2.35480605087937       11.67159575486347       -2.07299556316352
H           -0.69144674224257       12.89381846865471       -3.51772476126611
H            0.51712812053605       11.69423982218494       -3.15295040839828
H            0.40503765721710       12.31041669056267       -0.71820411649361
H           -0.80741724494375       13.52074618010000       -1.08459807708737
H           -4.35877617209444       11.55747093352506       -4.42620942867119
H           -6.82033432878939       11.52362241126725       -4.54598412367801
H           -8.07354892363185        9.56186848843542       -3.76851518498027
H           -6.88010133209726        7.59981914471470       -2.85537916167812
H           -3.88301678971044        6.37418575885348       -4.51140831846653
H           -5.07961345487087        5.72811598778391       -3.39070980272334
H           -3.37221400669444        5.39320140465237       -3.14211360924733
H           -4.17079462420363        8.07399119911907       -0.55196941059466
H           -3.54653177382653        6.43578816424521       -0.71280058011581
H           -5.25223120176305        6.75520914444097       -0.99429520120408
H            1.00490123960672        7.97347420638758       -1.41707526939461
H            1.87987255776121        6.80832910371320       -2.38831648057594
H            1.79112079138160        6.95976098396912        0.67198231303754
H            3.17750974654494        7.31569448056980       -0.33232717745551
H            3.16796992842987        4.99417250704607        0.78612196341272
H            3.46895894806564        4.98433406039899       -0.93851421136987
H            5.65153667247073        1.97496091185374        0.68036945918945
H            6.36772941038016        0.57782466294943        1.43021655757583
H            5.28066851987200        1.17235999229285        3.61572192605565
H            4.53297443710886        2.55760593129089        2.87857234012785
H            6.81572755946025        3.51528287265260        2.36371195854178
H            7.56158721577636        2.13297088147817        3.11639496732004
H            6.47392683791536        2.73429334993158        5.30411765645813
H            5.72725592522806        4.12585293214803        4.54526764601294
H            6.10556943674988       -1.46360304602460        2.25496556474969
H            5.44684688827796       -3.80749714979958        2.63976627653581
H            3.16764841059776       -4.55641950383600        2.12344736356442
H            1.50732857006346       -2.96719527735043        1.21427920469215
