114
 energy: -22.988576775591 gnorm: 0.000984911389 xtb: 6.5.0 (97a52f5)
C            4.30289378597102        2.60453404196980       -3.63180971558230
C            4.01972413186683        1.69369743908087       -2.42604268862714
C            3.47269646454982        0.31738285891793       -2.83945852620004
C            3.04869584460783        2.37858628349497       -1.45274975418551
C            1.77052940864826        2.79303758863739       -1.66292987033239
C            1.04053836606379        2.66645560043326       -2.87179264131618
C           -0.19433461779847        3.20328999884477       -3.15476576763921
C           -1.02956018476273        3.90596225414139       -2.21498379257788
C           -0.90569989646343        3.68144189881009       -0.76285472314872
C           -0.97883070595455        2.38612376115463       -0.21909741683620
C           -0.94461897988688        2.18948041015295        1.13580244628299
C           -0.81406699170829        3.26448205378876        2.01301610876816
C           -0.79914673700692        3.01947718367540        3.47698746360123
O           -1.43206412204475        2.07450932408384        3.92409775970845
O           -0.06048706536882        3.86551675810084        4.26061046627986
C           -0.73082647822985        4.55268929178007        1.48607546253756
C           -0.77498141380367        4.75829532906883        0.13294719520295
C           -2.07858431644340        4.76557504805300       -2.70251735007682
C           -3.03452756934624        5.22677432522056       -1.83174941934112
C           -4.11814078556940        6.07327964637612       -2.17162284984905
C           -5.10095901885145        6.48301091828013       -1.32528629581000
N           -6.15342271774224        7.33172507954873       -1.68878823080138
C           -6.34837057331099        7.88027891290660       -3.03775862942474
C           -7.04389970545441        6.88967279563774       -3.95956946032337
C           -7.22381723288871        7.40993870300066       -5.36897403237144
S           -8.03400856427096        6.15221398472696       -6.43635846223174
O           -7.08123272328092        5.00623782325244       -6.40713648447845
O           -9.34343236511570        5.91371906495446       -5.76690102448511
O           -8.12167109242056        6.85674325899191       -7.74368312256435
C           -7.06825911442961        7.53019800447289       -0.63477539853616
C           -8.25921286691131        8.27639589619295       -0.62922749770984
C           -8.99938782070627        8.34047494379512        0.51085527821692
C           -8.59012577197685        7.66849034434864        1.69166463516842
C           -9.35563130531905        7.73971432129874        2.87382007894194
C           -8.95663766961174        7.09074692020777        4.00657258128735
C           -7.77797458163896        6.34170777193483        4.01179257294587
C           -7.01053497705424        6.24830073162805        2.88751599528914
C           -7.38789196956954        6.90524093114727        1.69294351010284
C           -6.63535345418292        6.85080471676236        0.49280879470493
C           -5.32690347177443        6.12188235552406        0.15148738245029
C           -5.51349005656036        4.60343763613120        0.30851687971090
C           -4.17802976179712        6.66465406875430        1.01626089564203
C           -2.18175540161603        5.13351895890300       -4.16435436902569
C           -1.08882218413515        4.53205337620512       -5.06399995201101
C           -0.68004376248916        3.13822533076597       -4.57602296346052
N            3.73899264385499        2.53370117420805       -0.24231919328118
C            3.07446971965681        2.81106996004355        1.03867388485535
C            2.25606762720903        1.61477825259978        1.50319746088428
C            3.07945683070408        0.35677414392660        1.65076233701726
S            2.02714112900374       -1.08397662205402        2.09156093493933
O            1.89747075532460       -0.96047983111537        3.57033720907374
O            0.76750833561618       -0.89211518472917        1.31588968446784
O            2.86366991708268       -2.22652596213431        1.63374707659938
C            5.05774711906960        2.03419324415595       -0.32033701188740
C            6.04843273126606        1.99926180226832        0.67697588958551
C            7.26018373891350        1.44826665827340        0.39573997838535
C            7.54227954642242        0.90917065239759       -0.88561413707045
C            8.79750989774694        0.33558883520437       -1.17509524834347
C            9.06111738187236       -0.18535719944515       -2.40902579713758
C            8.08701511753325       -0.15697388269773       -3.40929292729477
C            6.86121107832243        0.39131377210879       -3.16755312982853
C            6.54661453499424        0.94136834789196       -1.90279352693151
C            5.29260220523026        1.52157877117497       -1.58614409170116
H            5.04252973999934        2.16688195648271       -4.29831336378134
H            4.68732321330180        3.56630292805611       -3.29472763507547
H            3.40590440029645        2.79266315027789       -4.21680205232392
H            2.53661559537109        0.40140054677557       -3.38623709723197
H            3.28724192055085       -0.29431170637984       -1.95751078505091
H            4.17562656559583       -0.21886759350257       -3.47285620093198
H            1.29201499042801        3.30154032402723       -0.84997601218039
H            1.53020366655839        2.15933778493792       -3.68098174345722
H           -1.08246787080069        1.54851946852404       -0.88683776295695
H           -1.00301195981196        1.19468397826269        1.54355450810626
H            0.42045759374584        4.52421012201556        3.71944455146767
H           -0.66687871483702        5.39478986480994        2.15247326869093
H           -0.70948587295104        5.75651102819660       -0.26474505159205
H           -2.96618697879761        4.90364976464954       -0.81274232229186
H           -4.17030738359071        6.41813747701711       -3.18687997602215
H           -5.37606276446145        8.17252934532299       -3.44326027322359
H           -6.92264274026636        8.80724582697298       -2.96364795545815
H           -8.01801960715818        6.61781900083962       -3.53407336169734
H           -6.47600895463926        5.95134453059642       -3.98204603398944
H           -6.26407364035221        7.66699954474881       -5.81681526639493
H           -7.83343988480403        8.31325951104735       -5.37999419083329
H           -8.57790567541023        8.78263456341046       -1.52259517337524
H           -9.91320229171985        8.90841820488419        0.52900690451217
H          -10.26421443625123        8.31663150790216        2.87213409362876
H           -9.55185907619755        7.15551372558844        4.90260978673963
H           -7.47456562690932        5.83519438895986        4.91336871294032
H           -6.10617145410829        5.66955188066957        2.91279680782342
H           -6.33321676604193        4.25781963255211       -0.32007122514198
H           -5.74648150487728        4.33343025805319        1.33591818739880
H           -4.62064731281658        4.05327457673197        0.02151196490842
H           -4.07906462766017        7.74071964066904        0.87953702695176
H           -3.22675070485762        6.20804892214325        0.75480102277475
H           -4.35093574503133        6.47830590204201        2.07376561660127
H           -2.17533953532652        6.22723680029625       -4.25081360231290
H           -3.16449174898198        4.81218746977194       -4.52959729587956
H           -0.20736455500307        5.18512200189817       -5.05429426587695
H           -1.41875958846788        4.49671859223879       -6.11136896768734
H            0.08714130631675        2.70199793502550       -5.22780450934503
H           -1.53872928467975        2.45815093360645       -4.62569388374490
H            2.45400370810641        3.70498533677796        0.92570049465342
H            3.83340530770259        3.06622239738978        1.78165421441590
H            1.45938125990594        1.42354379800514        0.77462994976808
H            1.74357519890253        1.83792365630897        2.44814093963935
H            3.84337911462499        0.47413912256041        2.41881916838943
H            3.59728193559269        0.12014029412894        0.72187975847636
H            5.84598066375456        2.40865871284792        1.65005030815158
H            8.02512032141541        1.41362227662260        1.15164894520742
H            9.54950791141557        0.31336543360633       -0.40548025338222
H           10.02492609932893       -0.62111527026544       -2.61513102988427
H            8.30952840797402       -0.57102641540401       -4.37913768065226
H            6.12670710131948        0.40487198948496       -3.95086571999491
