97
 energy: -20.022781057005 gnorm: 0.000954237543 xtb: 6.5.0 (97a52f5)
C            1.02330708729085       -0.59184720373766       -0.57004743871564
C            2.45461199390346       -0.16893665076126       -0.20825760825551
C            3.29765236309550        0.11601189128292       -1.46081642414083
C            2.45495841255934        1.03092465633772        0.75160004858712
C            2.01426716892131        2.29904804414261        0.53767826495732
C            1.42881963825732        2.79251766107944       -0.65230049984379
C            1.03252070008906        4.09718658833945       -0.80172653942361
C            0.46973687135215        4.59967436945598       -1.97223772886359
C            0.07802765824006        5.92760744402105       -2.12248090573342
C           -0.45491566701618        6.43312675801963       -3.28094264356472
C           -0.84612888899101        7.78591847476157       -3.41859095412779
C           -1.33553534631048        8.37215575078911       -4.54338052360588
N           -1.72024522423866        9.72940156955634       -4.63595923764027
C           -1.55293380339160       10.71134607500155       -3.55734243575941
C           -0.13543167237505       11.25938292496548       -3.50543805559450
C            0.07317597436362       12.27811709504944       -2.38609002983803
C            1.49818952595669       12.82763499750276       -2.33807947614433
C            1.70856894973903       13.84545189803889       -1.22470224268460
C            3.11548437599115       14.38572804243898       -1.21943983992023
O            3.37169776552363       15.33843737076098       -1.92791452717163
O            4.02300623452582       13.74579382905874       -0.42999818447117
C           -2.11244023480205       10.08530464051899       -5.94343694430302
C           -2.51340399527903       11.31070562715600       -6.46524949574479
C           -2.84607309405122       11.38350948579268       -7.80255773002633
C           -2.78249439191353       10.26146993869704       -8.60841886193086
S           -3.22762694212521       10.40757548572179      -10.35279673881672
O           -3.11258190372627        9.02933206919152      -10.91583985697116
O           -4.62631742856031       10.93114285034797      -10.33063870346569
O           -2.22519389726944       11.36825081098401      -10.90329620993911
C           -2.38236238370117        9.04274724581046       -8.09772386265585
C           -2.04465095970282        8.95418468614630       -6.76235956566067
C           -1.55081280844218        7.76341700012728       -5.93779311262199
C           -0.23206738259010        7.24410674352042       -6.53010445880108
C           -2.63015664416212        6.67199570291456       -5.90869877400321
N            3.03988165420738        0.57973666501334        1.95739618153819
C            3.38137052203785        1.45298832722560        3.08712270348382
C            4.67723046032868        2.21116753190354        2.84625879261970
C            5.04691076677073        3.14896924494983        3.99613775845288
C            6.31958267490809        3.92911470384048        3.74266431490953
S            6.71628518578948        5.02919355276598        5.16099838687376
O            5.50592380345247        5.88933867138351        5.29213380042474
O            6.94983559650335        4.07703148975915        6.28327311172801
O            7.93453507398581        5.73797581835412        4.68173110847297
C            3.45892722199472       -0.76514757515149        1.87570044511261
C            4.10916122944670       -1.56758819319337        2.80729860566385
C            4.40979063869262       -2.86948841957317        2.46266123802379
C            4.07394679074127       -3.36735063825583        1.21658901682123
S            4.47252977076824       -5.07435117343254        0.78156242114686
O            3.14526481039326       -5.69570153471741        0.49231461983459
O            5.36081857844300       -4.94798565461397       -0.41289700977487
O            5.15636143468758       -5.64544965036161        1.98010338398504
C            3.43324611343670       -2.57515205150712        0.28576095550603
C            3.12500797357959       -1.27054628722709        0.61552464512163
H            0.50338342765212        0.18216912379621       -1.13067474435762
H            0.44822912643357       -0.79615075824459        0.33245460493143
H            1.02941293513855       -1.49711269379638       -1.17602719534701
H            2.86919632929032        0.91133904162152       -2.06661037569392
H            3.37345122448386       -0.77328388111320       -2.08546841135999
H            4.30685693476695        0.41457706558138       -1.17925444442206
H            2.12197506162287        3.00279470107352        1.34293781819221
H            1.28473990987592        2.12493252790292       -1.48024319015134
H            1.16977844720275        4.77213440893169        0.02531664333040
H            0.33824294395938        3.93060642590926       -2.80446156007221
H            0.20787854006424        6.59250724430165       -1.28614278155251
H           -0.57709075005295        5.76570244244133       -4.11252910105490
H           -0.73650181122070        8.40410920343406       -2.54604737847216
H           -1.82827020000180       10.24529373455840       -2.60738088513195
H           -2.27370699749864       11.52013557616780       -3.70512613661345
H            0.11395986706110       11.71130787595803       -4.47250391696418
H            0.57245004739248       10.43053214910012       -3.39034186240209
H           -0.17795286395187       11.82146627303918       -1.42124125390463
H           -0.63681432924668       13.10536849873289       -2.50428781979583
H            1.75060948488846       13.28589230790972       -3.30181494478749
H            2.20959121434187       12.00169495788306       -2.22110299678520
H            1.47306823128551       13.40332665375277       -0.25231127301261
H            1.01351494968404       14.68168482517199       -1.34629917677778
H            3.61122210374364       12.99928814575373        0.05031283099898
H           -2.55454319952147       12.18040247736629       -5.83469369093990
H           -3.15774092538608       12.32058653623348       -8.23393827646507
H           -2.33312427322085        8.17670819538636       -8.73349507596109
H            0.51722938360233        8.03497580493468       -6.53947306094113
H           -0.37602679872365        6.90681292669478       -7.55586107214270
H            0.16844424288863        6.40967703713885       -5.95870632870660
H           -3.55775460687020        7.06633528594834       -5.49523731626971
H           -2.32754069025814        5.82130781395061       -5.30177914389047
H           -2.83893218030412        6.30852356620361       -6.91420656375541
H            3.45332342490462        0.84505654068177        3.99299363076861
H            2.55143197420470        2.14252920778183        3.26399070101749
H            4.59778501770183        2.78206347866970        1.91410478985182
H            5.48986712507286        1.49650093896324        2.67178669263931
H            5.14682363614355        2.57244443767400        4.92491774525270
H            4.22028260033101        3.84687140813231        4.18262109657753
H            6.22998211528379        4.54566795883192        2.84834470958569
H            7.16506033256244        3.25974016267916        3.58469973843025
H            4.37248334321827       -1.17478886826241        3.77256219900184
H            4.91265717442122       -3.51453834524670        3.16385585860514
H            3.18015612451985       -2.96928111254309       -0.68282226444014
