100
 energy: -19.915407252066 gnorm: 0.000754372514 xtb: 6.5.0 (97a52f5)
C            3.35765662738039       -0.32014812629128        4.55767229643403
C            3.65199751865950       -0.18047157882429        3.05549914090161
C            2.90135299024310        1.00129671512466        2.41910508207125
C            3.30878718362866       -1.48653025412188        2.32453687574878
C            2.12093225862851       -2.15070143281285        2.25832692594848
C            0.88339327826325       -1.72239074792714        2.78963457034105
C           -0.23718852579942       -2.51420269614394        2.79185245918366
C           -1.48097309231934       -2.09072986520199        3.25273040798246
C           -2.58995302619586       -2.92888464764116        3.33487618443164
C           -3.83823545542709       -2.50224927885053        3.71222057151059
C           -4.93441659339879       -3.38084549413567        3.86593752223930
C           -6.22309654212351       -3.03203694499436        4.13789909587266
N           -7.27011899685205       -3.94996401106352        4.33075863546598
C           -7.06306404678843       -5.38602050821812        4.56894940743576
C           -6.58989902719195       -5.65193422676378        5.98930094726860
C           -6.30712860149877       -7.12773118816767        6.26835727254677
C           -5.81234544252531       -7.37847095424998        7.67714089842043
S           -5.45012619598033       -9.15911091125586        7.95335890410703
O           -6.78498348622257       -9.81317559783654        7.83670395841430
O           -4.47712176008165       -9.49860437835544        6.87484029879488
O           -4.87992866818601       -9.15409026760278        9.32937697928315
C           -8.49890963506293       -3.30533924178922        4.58306934387046
C           -9.75178310806870       -3.87703737309755        4.86408363762854
C          -10.82172245751740       -3.06374749260705        5.08339518884768
C          -10.69418010536303       -1.65169299596601        5.03443254008159
C          -11.80351672362941       -0.81097481436831        5.25937367923491
C          -11.67221844679451        0.54837915038943        5.21569041160160
C          -10.43101734854123        1.12866700047029        4.94748802752879
C           -9.33324889286658        0.34754650590840        4.72443326513512
C           -9.42616426641711       -1.06340985997004        4.75734690275029
C           -8.32691561961570       -1.92946900744170        4.53210757534014
C           -6.84305760844359       -1.63268590175437        4.26706413404378
C           -6.24086870707600       -0.88656392938686        5.46941353756638
C           -6.67230525450824       -0.85717119039313        2.95101502158341
N            4.49923751580047       -1.93842733027605        1.72628183686194
C            4.51558394051670       -2.87038765369873        0.58738711821198
C            3.90557686061757       -2.23547156698799       -0.65541818890722
C            4.59417190481623       -0.92406589314472       -1.02934183567197
C            3.94052542410309       -0.19982789287014       -2.18451884041205
S            4.76487332824189        1.41657488691655       -2.47617142887847
O            4.46239141936021        2.18003912092601       -1.23048879372850
O            6.20016749014473        1.06687811881226       -2.68239126324188
O            4.06486300361204        1.91588653447121       -3.69199674261286
C            5.58823551598232       -1.08965710576905        2.02467723595965
C            6.92737260324914       -1.19902616752974        1.61074535220792
C            7.82324065808551       -0.24626331453547        1.98913197031364
C            7.42988596948095        0.85500625493434        2.79153175988638
C            8.35769738128601        1.84411580893521        3.17690885221047
C            7.97034180626215        2.90615537060150        3.94418412395494
C            6.64328232736771        3.02842753417911        4.36032606764579
C            5.71607472037840        2.08943612775567        4.00889909078710
C            6.07517031409714        0.97418034646256        3.21683779647662
C            5.16127571905308       -0.03162405774495        2.81460370393043
H            3.63451907015248        0.57721564852452        5.10635190214733
H            3.92010658190746       -1.15379189078606        4.97656370264054
H            2.30166098887337       -0.50549121448020        4.74253814445826
H            1.82380266697733        0.89977508621943        2.52374903011283
H            3.12777040387376        1.06517988412003        1.35556014304870
H            3.18735999040874        1.94696892960782        2.87439692414214
H            2.12002782858384       -3.10360452589334        1.76086639963621
H            0.80515451571681       -0.73805663216964        3.21104795950999
H           -0.15173363430872       -3.52015820917400        2.41856951552712
H           -1.58982611111175       -1.06632271274745        3.56347329605451
H           -2.45757844267052       -3.96915218950573        3.09224382633185
H           -3.97534145773278       -1.45407895663416        3.89864524724927
H           -4.72053512929874       -4.42821106248011        3.75604058123619
H           -6.34383288210409       -5.76771613821347        3.83980787400676
H           -7.99457219860074       -5.92027650573808        4.36515365747918
H           -7.33623156697142       -5.27450233726704        6.69814928579125
H           -5.68864792409893       -5.05998847695687        6.18726027464309
H           -5.56876333914959       -7.50294544812961        5.54816467891117
H           -7.21221540424679       -7.72009365798166        6.08262881763526
H           -6.55139949549230       -7.06393837946580        8.41380881041837
H           -4.90231257254161       -6.81366239042397        7.87897888897932
H           -9.85647934118380       -4.94597606647479        4.90638226202114
H          -11.78679300961029       -3.48864287503470        5.29987101576285
H          -12.76101137304167       -1.25673611531334        5.46730434217590
H          -12.52947201661816        1.17804198514589        5.38944669381126
H          -10.34158345395383        2.20238138523104        4.91731399142245
H           -8.38698017128311        0.81325748021250        4.52126398662209
H           -6.35911847028653       -1.47723702363508        6.37721249724362
H           -6.73267604757494        0.07041680998892        5.63049465497771
H           -5.17980041432352       -0.69037237482878        5.33588261809128
H           -7.10869470638288       -1.41617565817487        2.12402282728387
H           -5.62208374803790       -0.68934440255935        2.72099022970023
H           -7.16025618913382        0.11409289424194        2.98994488612799
H            3.98997726314554       -3.78649815534271        0.87270142880715
H            5.54884397371698       -3.16802419652482        0.39422816413042
H            2.84175065160366       -2.03930609144429       -0.47767905472829
H            3.93766608533314       -2.93050297406095       -1.50361678636291
H            5.65169579143320       -1.11075313883572       -1.25627128389551
H            4.60739398315632       -0.26117615623704       -0.15520421667520
H            2.88700216162474       -0.00756865699857       -1.98126791095628
H            3.98867240196670       -0.78757378398481       -3.10074586799531
H            7.23616856902962       -2.03201904031889        1.00585874477390
H            8.85159301899474       -0.31895749675781        1.67931853902582
H            9.38085564325497        1.75218590450753        2.85529146735934
H            8.69070223626276        3.65526000503453        4.22945196569029
H            6.35096463692633        3.87285597633167        4.96291275162169
H            4.70004051180645        2.20209936945835        4.33824357928477
