76
 energy: -18.063399268385 gnorm: 0.000989475738 xtb: 6.5.0 (97a52f5)
C            1.08306934371879       -0.32365236389853       -0.22398760468292
C            2.58723649136108       -0.05075570871696       -0.08340469368040
C            3.28255919156662        0.01660448361828       -1.45050986790644
C            2.84855371698946        1.21990362520213        0.73755156168016
C            2.53876603586900        2.51140054223791        0.44731970407973
C            1.83007264498530        2.97043600243739       -0.68675097076490
C            1.55733207830492        4.29684390978709       -0.90776235060347
C            0.85737264270046        4.76248521891742       -2.01889313458073
C            0.56577643300744        6.10815690141432       -2.23305134733351
C           -0.12147064484481        6.56868909625352       -3.32758752903729
C           -0.42125874722639        7.93642088444165       -3.52478049295402
C           -1.05653558946815        8.47794681828990       -4.59793387225010
N           -1.36169563686406        9.85330343086582       -4.72481593258260
C           -1.26354246765830       10.81882183323948       -3.62786292247341
S            0.46915193340346       11.31490918962455       -3.26217308606565
O            0.74663040619821       10.55766715070603       -2.00652337340735
O            1.31208053266955       10.92153325375836       -4.43125840157746
O            0.33158799390836       12.78715655758198       -3.07756259537391
C           -1.94682608288013       10.15189975434945       -5.97568281353378
C           -2.36952004618049       11.36458962739625       -6.51094923377641
C           -2.92118496963123       11.37449632750653       -7.77591994389623
C           -3.05175919665471       10.20273050561330       -8.49900676485481
S           -3.78161580650440       10.26574012791503      -10.15116781804738
O           -3.75066606888995        8.86075421918861      -10.66089229304313
O           -5.16195136188839       10.78988279833605       -9.91825990010883
O           -2.89117956346605       11.19790790365951      -10.90792889633540
C           -2.63255743000253        8.99595758494335       -7.97496606424468
C           -2.07743547683441        8.97024958284997       -6.71160724046041
C           -1.53572775447856        7.79976978440663       -5.88929746065217
C           -0.36882777819757        7.14015770164943       -6.63808367309726
C           -2.66666210617831        6.80057981261147       -5.60715337115444
N            3.52797730027173        0.81259006639680        1.90959017916459
C            3.78568833911679        1.68793179960095        3.05493330685637
S            5.17679860250810        2.85388495912400        2.76151468895996
O            5.97092320837463        2.34080245896268        1.60580447921506
O            4.45590877844589        4.13549777159588        2.50983212076403
O            5.89564627299764        2.79920191776745        4.06551060982557
C            3.76926742519945       -0.57930640464899        1.92451148202992
C            4.41261887174005       -1.37625269049126        2.86593794149878
C            4.50177962401453       -2.73361163996120        2.63392228151328
C            3.96364717908119       -3.29279564359073        1.48850051814624
S            4.08438498840937       -5.07280268099382        1.19948214301993
O            2.66198404752572       -5.53104718553879        1.16364232320864
O            4.79715345681725       -5.18265442107660       -0.10984834220653
O            4.86180339573269       -5.61660754790015        2.35450091988669
C            3.32710496251178       -2.50777101150524        0.54834723147428
C            3.23082960415524       -1.14793776054705        0.76600126008419
H            0.58242891570563        0.45499281274383       -0.79620760902958
H            0.61239925858901       -0.37370332459160        0.75769565633827
H            0.90829082222608       -1.27352349686655       -0.72875314879367
H            2.87140548893300        0.80769840675120       -2.07465100131673
H            3.17087522638661       -0.92481185004641       -1.98792819169201
H            4.34816698191146        0.20764363085537       -1.32507329281032
H            2.89356801946623        3.26248694107550        1.13103996119705
H            1.47991885498145        2.25699498818941       -1.40860576894197
H            1.89957196678784        5.01674905306259       -0.18397861308413
H            0.52111185519747        4.04552154114841       -2.74726011650663
H            0.89712556760013        6.82329187594054       -1.49956491791129
H           -0.44577691591245        5.85171069154651       -4.05791109202696
H           -0.08409398903089        8.61880047890151       -2.76409789182448
H           -1.70019445170215       10.38710657379824       -2.73142398635665
H           -1.83449856630291       11.71065690704368       -3.86618893770299
H           -2.25555610365217       12.27459017281048       -5.94959879585726
H           -3.25606646552149       12.30011621857578       -8.21511275957682
H           -2.73799136723528        8.08996541028778       -8.54517468942194
H            0.41863704217868        7.86880318954544       -6.83017516030396
H           -0.69983776145692        6.74239429054707       -7.59698242565570
H            0.06474297154521        6.32035093544983       -6.06851225933920
H           -3.48480234831760        7.29128666662152       -5.08031146127015
H           -2.32649615910280        5.96709152159717       -4.99564408325133
H           -3.06277396073732        6.39274126352945       -6.53675837660038
H            4.01396280262509        1.09222877584271        3.93341855971408
H            2.88937480002127        2.26005735887362        3.27802007149655
H            4.83927889367186       -0.93604471114627        3.74927298961531
H            4.99446868222769       -3.37504177570504        3.34579210070793
H            2.91178116507868       -2.95075308976424       -0.33999552055297
