70
 energy: -17.195413915950 gnorm: 0.000922422201 xtb: 6.5.0 (97a52f5)
C            1.01590993219011       -0.27697988401116       -0.33755140370594
C            2.53114891080684       -0.07175280294605       -0.21263611139127
C            3.22014712626288       -0.05344309588215       -1.58434849436263
C            2.85784432169246        1.19625934763142        0.59860827076228
C            2.56393246712390        2.48988968591533        0.28930811825402
C            1.89478593701002        2.95609904075441       -0.86430011376226
C            1.61803839537443        4.28285873276457       -1.07916392108598
C            0.95649799070431        4.75479420061279       -2.21093996138356
C            0.65096339324027        6.09832575182879       -2.41837661977660
C           -0.00194763068738        6.56036221909677       -3.53333964482215
C           -0.32876858793930        7.92184763596547       -3.72248821156606
C           -0.98239258547590        8.46471483873840       -4.78712166794179
N           -1.29682888156082        9.82598714129188       -4.93272963685013
S           -0.74795356256874       11.05864553762585       -3.85263194630935
O            0.69576158072636       11.23221079078433       -4.16843836081201
O           -1.53780322955411       12.28917961750150       -4.11603913407448
O           -0.97004673648202       10.54681204518660       -2.47450804940155
C           -1.95064067264837       10.09152212901128       -6.14584756460240
C           -2.41078816822119       11.28626651301955       -6.69603303743716
C           -3.03880150503994       11.26540267268514       -7.92322501933411
C           -3.21344705286705       10.07567305771594       -8.60566275103205
S           -4.04240585149583       10.09357687903173      -10.21181318827056
O           -4.04844739726929        8.67335837545130      -10.68098297351117
O           -5.40477833929944       10.63339358509907       -9.91216342634350
O           -3.19570912629341       10.99800157703194      -11.04957983185900
C           -2.76335362386934        8.88350721244403       -8.07443327871262
C           -2.13308919826057        8.89085762350833       -6.84694045944638
C           -1.52410853347846        7.74720781839530       -6.03746758399715
C           -0.39015096562044        7.09800697919897       -6.84306746877227
C           -2.61726620157759        6.73465367926115       -5.67151582006752
N            3.52171769201271        0.77316971863274        1.76296347247042
S            4.27918837588046        1.83506887039212        2.89485302944369
O            4.43405306441273        1.09258330377119        4.17332391562794
O            5.58778521418094        2.18318705004368        2.27734752573210
O            3.39538416699855        3.01913185736429        3.05642312359717
C            3.72002667954124       -0.61558140816018        1.78148049197828
C            4.37200135899140       -1.43292032420308        2.70293550056476
C            4.42942918946770       -2.79110134180056        2.47461115742721
C            3.84975852369467       -3.34233216787004        1.34632319220943
S            3.93523727451951       -5.12452810150922        1.05738935683397
O            2.50429362586605       -5.55662826976732        1.01275989046093
O            4.65349453221386       -5.24863923839087       -0.24846712698898
O            4.69580702059965       -5.68590602633550        2.21633855313434
C            3.20060455456854       -2.54666140090334        0.42404271056732
C            3.13420333461449       -1.18534509902762        0.64175740216753
H            0.54636827392225        0.52004845310770       -0.91093538691197
H            0.55264660758932       -0.29803369265780        0.64864184907360
H            0.79299092048577       -1.22151056776526       -0.83320265336920
H            2.84178328817499        0.74414638401657       -2.22009996182241
H            3.06417049118822       -0.99680798082176       -2.10704987983110
H            4.29398187697759        0.09145056918978       -1.46784782793358
H            2.85571262913677        3.23314080144692        1.00906453091293
H            1.57492009771805        2.24939788863356       -1.60637803098845
H            1.92181388459772        4.99709397492069       -0.33337840909738
H            0.65998848872953        4.04286414515222       -2.96190831741339
H            0.93603071246377        6.80739877703206       -1.66040731811272
H           -0.27934039167335        5.84598868310890       -4.28511343386722
H           -0.05276380971073        8.59870893326402       -2.93388376732337
H           -2.27706789189108       12.20325424302207       -6.15222268934961
H           -3.40204642604676       12.17997271006853       -8.36283727567034
H           -2.90174896100467        7.96307021180198       -8.61360795815793
H            0.37181169350383        7.83714706567733       -7.08975077120956
H           -0.76893376594127        6.68236552592207       -7.77646705128521
H            0.09064244747149        6.29308998926884       -6.29096968188149
H           -3.41222529503005        7.22135304745711       -5.10689122605071
H           -2.22759652121932        5.91913696464583       -5.06555378861031
H           -3.05912946319262        6.30199959131251       -6.56875537411552
H            4.81023326170279       -0.99347131351421        3.58021243222035
H            4.92831294862095       -3.43947224809206        3.17575678510056
H            2.75673809097308       -2.98254848310735       -0.45390769797062
