90
 energy: -21.506891809682 gnorm: 0.000693490625 xtb: 6.5.0 (97a52f5)
C            0.99753196242326       -0.16069089449009       -0.29381677973400
C            2.52817754686633       -0.05046265041986       -0.22775878769572
C            3.16348058226809       -0.13358495328523       -1.62401022495173
C            2.96289478511423        1.22433326533170        0.50731543973416
C            2.76309946945863        2.52910595872990        0.16311137440570
C            2.05744824214965        2.99815740760396       -0.95948558668951
C            1.86079228197659        4.34119416646895       -1.21714508425611
C            1.15640949019380        4.81154205724875       -2.32051593629451
C            0.92273516310572        6.16078555938916       -2.56571635371307
C            0.22275754129927        6.62074427783238       -3.66433196149733
C           -0.02997460027540        7.98479016472190       -3.89630217471521
C           -0.71941167455052        8.51293900974668       -4.94831462247608
N           -0.95472675821337        9.90909402348868       -5.12067069757591
C           -0.49330063717204       10.93858231207275       -4.23173583253687
C            0.86089639951447       11.05217144297491       -3.91072995417349
C            1.29449302186536       12.03930503719247       -3.04972762236595
C            0.39114857019001       12.92609120959045       -2.50113672343980
S            0.97483981674881       14.20883126731796       -1.36941144231432
O            1.22216507932845       13.47060342399189       -0.09332998158078
O            2.21183240177845       14.74754424890257       -2.01329305654771
O           -0.13689623308873       15.20492010097373       -1.28641454944625
C           -0.94986680729797       12.83011958061070       -2.81131881290592
C           -1.39362122353786       11.84618327191301       -3.67051275443354
C           -1.76035232329148       10.15254616020527       -6.26374170814592
C           -2.21277248650520       11.35477228331851       -6.79682332350488
C           -2.98596335341015       11.32442924447699       -7.94203319224822
C           -3.29951039019468       10.12093266501501       -8.55015887169099
S           -4.31793453486581       10.12963046884624      -10.04281086954819
O           -4.39569071509881        8.70513584811861      -10.48967105174863
O           -5.62769581501259       10.68687101029548       -9.58610862198492
O           -3.57204549436701       11.01423867529456      -10.98968829077628
C           -2.84453999076194        8.92380508836724       -8.02988869867326
C           -2.06996854749500        8.93906383291876       -6.88465103795126
C           -1.43288407720754        7.79243245155681       -6.09981321242024
C           -0.43067651628975        7.04606630521940       -6.99256418941700
C           -2.53428807092753        6.85686092662110       -5.57869831607830
N            3.68733208016593        0.81168658311330        1.66468348379849
C            4.28722405684289        1.69420021269731        2.62599889885309
C            3.53428345885060        2.68897187524015        3.25339409452302
C            4.12057178996476        3.53438685292580        4.17295731597692
C            5.45800857916715        3.39983444959059        4.48317349449333
S            6.20661258970838        4.52000985960594        5.68859702941554
O            6.13044707563655        5.86040250410979        5.03122771512002
O            5.34463726276110        4.38290373578785        6.90233345097008
O            7.60296844071747        4.02414706795049        5.88587615567579
C            6.21485125326673        2.41853059586846        3.87636806846574
C            5.63831888985088        1.56890343919388        2.95501197273088
C            3.75840133382274       -0.60385416980478        1.74311569865804
C            4.33483353642191       -1.41496978150142        2.71469278525164
C            4.24089136115728       -2.78647690422466        2.57414964725961
C            3.58190496240899       -3.34268724850516        1.49034498583567
S            3.46457073955241       -5.13771055633552        1.31858098930111
O            1.99396474863649       -5.40739316953754        1.31096326975208
O            4.14637402915051       -5.42598205979544        0.01966107067703
O            4.17233770198574       -5.70443427973748        2.50709115036301
C            3.00093487742545       -2.54139883657180        0.52594646616685
C            3.08661178463851       -1.16721494327622        0.65417213029765
H            0.56015055554990        0.63720085495382       -0.89071761886633
H            0.56896392512104       -0.10501042762631        0.70656460379529
H            0.69730802454683       -1.11063484050374       -0.73521349408728
H            2.81302109943444        0.66354233122048       -2.27655516792327
H            2.92513633617462       -1.08404925987456       -2.10067140870076
H            4.24820501029646       -0.05660586675421       -1.55304715286965
H            3.18629934519697        3.27463823752138        0.81183318976617
H            1.63691256143656        2.28915300960019       -1.64713490287599
H            2.26322788792341        5.06018478993924       -0.52472773230003
H            0.76343531882976        4.09209603566797       -3.01776699879087
H            1.30113100158177        6.88066920176512       -1.86078320602741
H           -0.13910483192959        5.89488995254669       -4.36750970700389
H            0.34877802939411        8.67609485090739       -3.16525930711912
H            1.56191221466259       10.36856043947966       -4.35658840370091
H            2.33924019720550       12.12933685295311       -2.80110626873087
H           -1.64300580196230       13.53011633596114       -2.37477081086297
H           -2.43980041023225       11.75432667630641       -3.90407016940768
H           -1.95467144502011       12.28399279128665       -6.32169142011812
H           -3.35391300670539       12.24078116741270       -8.37366878134474
H           -3.09016299412476        7.99410098547985       -8.51159705179259
H            0.33937727383982        7.72825646317359       -7.35214686661250
H           -0.93054632854138        6.61651523815278       -7.86045459261494
H            0.06209512843714        6.23712851483916       -6.45666357167855
H           -3.23146528150144        7.40611926497497       -4.94640631786034
H           -2.12605200563316        6.03584306645197       -4.99300457710727
H           -3.09891420569487        6.42715105396210       -6.40577734937845
H            2.48692691957161        2.77461199123425        3.02263600148265
H            3.54126149168097        4.30292907956084        4.65803067638174
H            7.25793593050289        2.32580613644192        4.12966873875502
H            6.22521892009487        0.81041981191621        2.46752861360847
H            4.83114195212182       -0.97235925704632        3.55934187650722
H            4.67867795653603       -3.43952984235792        3.31065798601182
H            2.48613657446590       -2.98184511461991       -0.30989517258598
