63
 energy: -12.062500038806 gnorm: 0.000927393481 xtb: 6.5.0 (97a52f5)
C            1.13361247849593       -0.02512293039441       -0.68275700869069
C            2.57037170238951        0.31211833280680       -0.25253388898081
C            3.50375120625351        0.50394548192330       -1.45963032691589
C            2.60121552916011        1.53479639813182        0.67919658010959
C            2.25194628540347        2.83828127539046        0.40289378853494
C            1.76169009866825        3.32346474902838       -0.80640313078327
C            1.44118280646462        4.65609575836270       -1.00137450509271
C            0.96031574662826        5.16633059192444       -2.18376154944923
C            0.62831937358716        6.52110994517447       -2.41861060952607
C            0.16472201269317        6.89739441300367       -3.65937534080427
C           -0.17183122032727        8.22650533398407       -3.94382235392325
C           -0.64332520736225        8.63307422798286       -5.20647402671551
C           -0.96063638478460        9.93722172702170       -5.44907819004974
C           -0.82375242191686       10.91073374188714       -4.44042177668210
O           -1.13323920245479       12.23455109610699       -4.64819166335989
C           -0.35768111561773       10.51271496842574       -3.19186265247052
C           -0.02799847061256        9.19273526078559       -2.91917747660325
O            0.43059923269457        8.85881385415157       -1.65745731508098
C            0.76430732049404        7.55036907284526       -1.37403413201745
O            1.17111971367049        7.23297207090503       -0.26776358735472
N            3.07173429610583        1.09758923175590        1.90354670221796
C            3.31167388575671        1.95032459481154        3.07643645918030
C            4.68953817913830        2.59261330725946        3.01797136641883
C            5.00830002911297        3.46509419863915        4.21314523817871
S            6.70317094340733        4.15734984328504        4.03740661555702
O            7.51633241827233        2.93989498165506        3.78826492791356
O            6.55213213896860        5.07041370336052        2.87705161729657
O            6.92129917282104        4.81828409745361        5.34370383794713
C            3.40178253372226       -0.27773501725799        1.89765672838121
C            3.93784539851705       -1.08477624082224        2.89419179355145
C            4.17262516098600       -2.41423273161434        2.61264385020512
C            3.88351128213862       -2.93166166602760        1.36475533833884
S            4.20178268957365       -4.66366048032799        1.02669434269851
O            2.96908117742437       -5.22279173317117        0.39295814492769
O            5.45806349543993       -4.70679141257808        0.21833009047916
O            4.37896478654049       -5.33812161119706        2.45739070583756
C            3.35588512773613       -2.13683112929876        0.36849333027820
C            3.11488672235238       -0.80495248185544        0.63774693317474
H            0.69772685393509        0.76390165592806       -1.29133004090856
H            0.49933594522727       -0.16311469752079        0.19208822197027
H            1.10987769004590       -0.94622112401932       -1.26345059363240
H            3.17491355499170        1.31704947236731       -2.10250609266772
H            3.54549768559929       -0.40142131267567       -2.06356642645850
H            4.51516789221348        0.72994236038460       -1.12381951394882
H            2.37071018454256        3.55680855963724        1.19334918097551
H            1.61897822768356        2.64851377912994       -1.62799461223777
H            1.57858303283889        5.33497643717322       -0.17887799586585
H            0.82796040463936        4.47957932194854       -3.00186980298100
H            0.05939926042937        6.15725339535203       -4.43198664086648
H           -0.75050978325850        7.89700454357010       -5.98481093797009
H           -1.31922880324586       10.23341935807558       -6.41837886001055
H           -1.44356415497502       12.38132107693641       -5.55894087269167
H           -0.25024985593955       11.24846277038410       -2.41758847145302
H            3.20436834554644        1.34282767820748        3.97848770766606
H            2.52474208811240        2.70606550781246        3.13679772039024
H            4.77933946991969        3.18188391561207        2.09674707486117
H            5.45084784551592        1.80758278369420        2.92338788693949
H            4.95736959265198        2.89676517038735        5.14197658645220
H            4.29953551410640        4.28874777635213        4.30027701364413
H            4.16798062420960       -0.67637008558612        3.86166938958630
H            4.58337819077677       -3.06639023596996        3.36582206432637
H            3.92787458758229       -6.18966443094492        2.50162585807823
H            3.13629668527050       -2.55094849967019       -0.59972669989242
