68
 energy: -15.282148028953 gnorm: 0.000923727082 xtb: 6.5.0 (97a52f5)
C            1.09739907465439        0.22110673624134        0.06231283462442
C           -0.11220405552700        0.08816730699963        0.18445939889063
C           -1.50888884212257       -0.05443675186726        0.32181151259597
C           -2.09340651516382       -1.31506749112136        0.39687888103834
C           -3.45939206890641       -1.45181058436600        0.52870949975013
C           -4.26436344653531       -0.33217188154226        0.58730489921245
C           -3.70038617973468        0.92548195099518        0.51481931681051
C           -2.33463291957548        1.06405445654532        0.38268473990345
C            2.48712837479365        0.38224729812053       -0.08342553389063
C            3.00697752475187        1.68516579763092       -0.00110885392496
C            3.49782080166792        2.80390057643160        0.04942998165047
C            4.11862153585607        4.06912329099467        0.09905989913933
C            3.38690505853101        5.21919663911078        0.37779276838739
C            4.00424180568709        6.45160181196305        0.42537749120178
C            5.36138145541954        6.55524062203888        0.19581233064140
C            6.10142014350106        5.42374070745019       -0.08216816428211
C            5.48577882260742        4.19096088604226       -0.13032521855446
C            3.24574301565504       -0.70995243962092       -0.33793046894757
C            4.69229236313807       -0.76656265980638       -0.51121042963855
C            5.55990780603250        0.18346704513857        0.03259339049315
C            6.91849339041908        0.09104826012345       -0.14241318553303
C            7.48799061605756       -0.95869505735705       -0.86927509013040
C            8.93400956733590       -0.99596688091929       -1.02956698795464
C            9.69865889112741       -1.89783980680816       -1.68956277211769
C            9.20608850387859       -3.02189499337344       -2.37300235925165
C            8.76812341817003       -3.99704166980171       -2.96673972084072
C            8.21269111072799       -5.10542499819848       -3.63857418432505
C            8.70322943267599       -6.38944114945726       -3.42316864864036
C            8.15341039376641       -7.47224078804825       -4.07658840914887
C            7.10489125311782       -7.29024181866985       -4.95559994804257
C            6.60618475980378       -6.02300393368477       -5.17995961769379
C            7.15436696955331       -4.93906742427738       -4.52682855101775
C           11.09145761256613       -1.69904038750519       -1.69786276220716
C           12.30125948540659       -1.51904243292471       -1.70451670383238
C           13.69629820704121       -1.30858864148996       -1.71362502798163
C           14.22213480867073       -0.02137369680773       -1.65956658155637
C           15.58588127566987        0.18396424516920       -1.66723462826779
C           16.44704409027579       -0.89288865316612       -1.72910811949122
C           15.94175762026841       -2.17613382691933       -1.78321470134381
C           14.57825852490080       -2.38328496165909       -1.77598731126329
C            6.61981824709732       -1.91586472349303       -1.40054909247399
C            5.26131309460571       -1.82655367343603       -1.22196437351270
H           -1.46219201614816       -2.18620357859503        0.35033772280235
H           -3.89887336904222       -2.43436708602590        0.58530678496971
H           -5.33196603821370       -0.43968085624877        0.68960588539748
H           -4.32797681684900        1.80055368003224        0.56080540354060
H           -1.89072464619688        2.04339962853021        0.32511423001078
H            2.32858004894596        5.13361121623158        0.55648766180458
H            3.42601787541685        7.33502856082504        0.64218235793111
H            5.84291344317158        7.51880658620370        0.23375269268159
H            7.16116821567499        5.50355263523757       -0.26181240338422
H            6.05888238709805        3.30549323090379       -0.34659950380354
H            2.72413824772591       -1.64637414565866       -0.44335312214513
H            5.15637283917678        0.99043274704335        0.61570096934403
H            7.56461951878762        0.83782131034294        0.28693023448103
H            9.46460255412455       -0.18696607748308       -0.55623457995445
H            9.51981224187693       -6.52695050611469       -2.73484354846204
H            8.54289989327391       -8.46163775364788       -3.90024072256129
H            6.67566561381945       -8.13709212389199       -5.46588655375286
H            5.78712895173280       -5.88005731183191       -5.86588306390424
H            6.76723724914432       -3.94894610351624       -4.69795350660277
H           13.54696007716160        0.81604169780766       -1.61081290990494
H           15.97934429967883        1.18651483518742       -1.62422433503857
H           17.51281935324854       -0.73194164197959       -1.73454190651077
H           16.61354311088833       -3.01765286237164       -1.83168632708343
H           14.18009006024315       -3.38285148938174       -1.81820709310865
H            7.01872058196841       -2.73932165194445       -1.96001170038073
H            4.61371127322285       -2.57709925113518       -1.64236216913362
