59
 energy: -11.393623561070 gnorm: 0.000924864405 xtb: 6.5.0 (97a52f5)
C            1.27076890844272       -0.15902318105328       -0.84748004308590
C            2.68366696491833        0.21262645826604       -0.37075250415149
C            3.63817663328970        0.46848339339406       -1.54829699228974
C            2.65003953351351        1.41136917156691        0.59164911940091
C            2.26611959085024        2.70936612609482        0.33766233958150
C            1.78770484827625        3.20692701181546       -0.87127365961799
C            1.42942150924629        4.53295965304575       -1.04393971496598
C            0.95957338552265        5.05437071759247       -2.22587668115151
C            0.59264814114423        6.40321497629915       -2.44358465279767
C            0.14872098094846        6.78628652405126       -3.68953994564870
C           -0.21852744691112        8.10956947542404       -3.96363579675036
C           -0.66823489708249        8.52091207209226       -5.23279847093023
C           -1.01238477489328        9.82007377560480       -5.46676266221815
C           -0.92675343917753       10.78277762600360       -4.44225811780296
O           -1.26532469637238       12.10199770037820       -4.64354069014938
C           -0.48380427973899       10.37919828362357       -3.18695156122629
C           -0.12656657750137        9.06436155862525       -2.92274966039932
O            0.30939616755324        8.72369974580932       -1.65319604533325
C            0.67230234303398        7.41891912922884       -1.37897342187409
O            1.05778896571868        7.09637626717128       -0.26549465936972
N            3.10429356870269        0.95924332807665        1.81683516842603
C            3.29024872929403        1.78900512607382        3.01549961181352
C            4.65189468496765        2.46600059278703        3.01454774177037
C            4.91039397574886        3.31237926177092        4.24092101454447
S            6.58684761643308        4.05820612396501        4.13880679480825
O            7.46326573989785        2.86842551046997        3.97300979335963
O            6.47835718730953        4.94059209414280        2.94740324458248
O            6.70946379822615        4.76145976193045        5.43834084844389
C            3.48141258583997       -0.40395185387381        1.78336696678589
C            4.01960539102002       -1.21849427018910        2.77171846099684
C            4.30528863817641       -2.53212560746555        2.46762195074578
C            4.06312057724278       -3.03349543724102        1.19806130913969
C            3.53271784090997       -2.22466891543424        0.20835135377183
C            3.24359732861153       -0.90923766427350        0.50489487038479
H            0.82585664812254        0.63143085237292       -1.44740375829594
H            0.61869405654586       -0.34035866894137        0.00584562910027
H            1.29280132969199       -1.06463878356926       -1.45177988193369
H            3.29467077016836        1.28523862645985       -2.17860589975427
H            3.72732683069986       -0.41901854806732       -2.17293805232744
H            4.63196475374633        0.72229343249076       -1.18180535709748
H            2.34477231949298        3.41171652626072        1.14710431589300
H            1.68553931512676        2.54640711299820       -1.71061196225708
H            1.52789736193472        5.19555300295801       -0.20355539797807
H            0.86670280795673        4.38100774303681       -3.06025540715928
H            0.08448587358203        6.05595050191983       -4.47574653668519
H           -0.73679363258307        7.79225084139578       -6.02204795215185
H           -1.35483649735063       10.11988137129164       -6.44061938119113
H           -1.55434933368335       12.24498878225412       -5.56335467217432
H           -0.41614842873808       11.10693351623330       -2.40120636884497
H            3.17263573515680        1.15759564632138        3.89964701624838
H            2.48420829779764        2.52457527210905        3.07132971390129
H            4.75315964472989        3.08215626973707        2.11235863079317
H            5.43544197823433        1.70314088088230        2.92256950835693
H            4.84986767391457        2.71680818059182        5.15162316023954
H            4.17628119487423        4.11295033851755        4.32993873644590
H            4.21311177852085       -0.82366085283829        3.75271123201460
H            4.72202029235102       -3.17584092362876        3.22444941041921
H            4.29324424150327       -4.06304511699572        0.97802114631650
H            3.34826546499691       -2.60743053954434       -0.77963318065967
