59
 energy: -5.227410943093 gnorm: 0.055354723011 xtb: 6.5.0 (97a52f5)
C            1.81100377036972       -0.00359702141205       -0.26329993025699
C            2.21954245257432        1.21534858471383       -1.02529366398351
C            3.33821719095332        1.03429682466906       -1.89791091293377
C            2.25055023557563        2.42323872198061       -0.24522247195590
C            2.07473355741177        3.65505008146382       -0.65867603916557
C            1.80439325796124        4.06342103417892       -1.89552222253980
C            1.67391106432147        5.35060716687197       -2.29843502109562
C            1.42434994532218        5.69652424539373       -3.57524467043709
C            1.33151044204238        6.93710353247513       -4.08402510969441
C            1.48094629396303        8.07920233411693       -3.44490478441958
C            1.43123675327535        9.30868850674451       -3.97913490928576
C            1.22789758170293        9.63078104822626       -5.28048860758920
O            1.17902640098254       10.71419867742251       -5.86337083571180
C           -1.86079437345925        6.13455919279861        0.57839355422881
C           -1.64107531553512        6.16545980850102       -0.70137610134003
O           -0.99422056269925        5.81898067980642        1.51552330120128
C            0.26743388309698        5.47583750235438        1.33508491947393
O            1.18650528450793        5.15028009979150        2.14365066660095
N            5.68308017426279       -0.52481920633258        1.50967889198936
C            5.85238720916669       -0.11696937603091        2.56471822672450
C            4.99076367826373        3.18371938483586        4.01485877147401
C            5.24028057879596        4.47725965488901        4.02541054911833
S            4.18588226190448        5.42445707325968        3.03019109985390
O            4.23361326511339        7.21355162966949        3.53848219851624
O            4.24052550120784        7.96939291247543        3.82552642835953
O            4.24848535682303        8.78211069841890        4.10760730225811
C            4.71078686442375       -1.54671553646086       -0.67606116850127
C            5.50184737930932       -2.38103532628536        5.21007366800839
C            3.63407054489236       -3.40307734418048        2.29742678602165
C            2.59075993016446       -3.65696881401208        1.51099861445185
S            1.65950217444920       -4.96148334343828        1.65199029924906
O            1.77436327405803       -6.04777952352012        2.72579003311219
O            6.20708412965419       -6.96366145905908       -2.71108761607233
O            4.21313783173666       -4.01450022109577        3.21824978730876
C            1.71700400804438       -1.06695036444410       -1.07479491070459
C            2.75907272156239       -0.34884363566126        0.61850655068877
H            0.86352534791371        0.14294668895280        0.25659257897891
H           -0.34601243007154        0.94163369069935        3.98636192544228
H           -2.21482073985436       -3.42068901076934       -1.12734110520479
H            3.49001766109212        1.85282757960328       -2.53924948865726
H            3.95954877075216       -2.41521016490671       -2.17754119562477
H            6.40642490320065       -1.50858974818819       -1.51920988218181
H            1.78683999932467        6.13045707896573       -1.56287783309290
H           -0.73620505431427        1.03724032536924       -2.71472815885567
H            1.12999031580922        3.59937005798393       -4.90869652064766
H            5.44310109686151        5.99309723738553       -2.65590767082090
H            4.99067220549692       10.45119819274689       -1.16465872551832
H            1.15284428658962       13.03753734687048       -1.18868235678902
H           -2.29566467664759        6.43286516586629       -2.21905204313848
H            7.41269994194347        0.27154832349216        3.27110124834309
H            5.36986948541796        1.43184221726859        3.08307025424599
H            2.90921747410504        4.90536147337955        3.13920218166420
H            4.56751910137396        5.26706880303776        1.71045059689783
H            6.18637399346399        2.54191573873151        5.12620325235601
H            3.66155969789772        2.43517868749433        4.80970663935843
H            5.64737730393604       -1.08319462317091        3.91046622116822
H            6.71348163211748       -3.28431045077001        6.26320774841316
H            2.46491099962133       -6.02462408614348        3.45420519451020
H            1.92324396722576       -5.47194874825046       -1.38279556346043
