69
 energy: -13.331771245167 gnorm: 0.001593286230 xtb: 6.5.0 (97a52f5)
C            3.47216549272184       -6.18972388912368        0.09951601273299
C            3.78457641365648       -4.69993911692372        0.32291989075185
C            3.63544505088833       -4.29646504823051        1.80080051027467
C            2.85638829243833       -3.84042940190064       -0.54551144025727
C            1.48471769241626       -3.80012858414883       -0.36904456185881
C            0.56919686822484       -2.95667998547374       -0.97013774995448
C           -0.81800730412001       -2.95720604638521       -0.72559799494783
C           -1.61604990557559       -2.03732423327386       -1.37508711775954
C           -2.99967157078672       -1.99954867165895       -1.17425560422240
C           -3.83359115584918       -1.07366735869447       -1.82992950189407
C           -5.18026789909507       -1.06756098795423       -1.61337021382131
C           -5.76946959975293       -1.98725558235319       -0.72459840571695
O           -7.12131194473076       -2.01191145773354       -0.47503163467863
C           -4.94895610580297       -2.90371227709017       -0.07478956745744
C           -3.57733528243149       -2.93179412724664       -0.27868168618106
O           -2.81531009664738       -3.86630432850209        0.39804421876418
C           -1.45096797103129       -3.90515076294252        0.20825510197730
O           -0.75932100609717       -4.71376298020436        0.80374400820780
N            3.65801675320675       -3.17534886837861       -1.45174717761891
C            3.22136108211812       -2.38123468191850       -2.61098852379707
C            3.09573026105042       -0.90222800571257       -2.26607953062931
C            2.55791562142935       -0.05494029622648       -3.40198721585417
S            2.24559705353717        1.65317036574675       -2.79635635389487
O            1.22326973235148        1.39398926990856       -1.75310866911552
O            3.58251308672755        2.06777536041346       -2.30751479953146
O            1.76024894053030        2.34798879133209       -4.00775330931257
C            5.03003597004630       -3.44319201058757       -1.23674896117742
C            6.14786865657232       -2.92485594756138       -1.91151036005766
C            7.39334128351360       -3.32027684618398       -1.53807920293805
C            7.59852256173090       -4.24362859626259       -0.48013702237432
C            8.88874641612190       -4.65009807283173       -0.07041863373227
S           10.40542510358103       -4.01842019173654       -0.80043225711393
O           10.15716487737485       -3.72131343980437       -2.24169014599275
O           10.80882091499663       -2.85943306577988        0.05168252308602
O           11.42921330770602       -5.23039805173937       -0.70341182221519
C            9.04614527704218       -5.55699267743943        0.93213208344769
C            7.93957962983924       -6.09273694536237        1.58238015105549
S            8.16850404009452       -7.28918607928922        2.89624661182747
O            9.43190013824020       -6.91386570242883        3.59637320760387
O            6.91260086643343       -7.29287788679571        3.70399794547676
O            8.29014884177490       -8.67959964029904        2.13771386773438
C            6.68152755641478       -5.71813658585415        1.23479009681238
C            6.46505446535503       -4.78166751855529        0.19797809411246
C            5.17748552468888       -4.34918102449160       -0.20147946606134
H            4.15033215410759       -6.83160397595342        0.65809440273262
H            3.56642073854577       -6.44157693911708       -0.95671846478205
H            2.45664594474556       -6.42967290704562        0.41259093102692
H            2.62219257794133       -4.47844909224970        2.15709061403706
H            3.85065523218895       -3.23547018478497        1.92665214817295
H            4.31531453258479       -4.85325677588947        2.44214315692951
H            1.08097644572101       -4.48452766880760        0.35289783100649
H            0.92782545527150       -2.21110543930796       -1.64921877465408
H           -1.16864199714700       -1.32860360406570       -2.04845362440925
H           -3.39328739718274       -0.36375315810486       -2.50969355162274
H           -5.80390493364908       -0.35537029094432       -2.12338489154014
H           -7.58850833332057       -1.32739896764667       -0.98394536598596
H           -5.39047897373543       -3.60924186356463        0.60385670950866
H            2.28310284778678       -2.79380415877991       -2.98717078141550
H            3.93673204594270       -2.52689787396057       -3.42388919668125
H            4.06960311631664       -0.51326348661472       -1.94153418559728
H            2.45200446917834       -0.78456150671127       -1.38513948362424
H            1.62037251287787       -0.45958809555775       -3.78388869943318
H            3.25674841172386       -0.01929452212965       -4.23845516458471
H            6.01461642772869       -2.22035540360526       -2.71318323608890
H            8.25295538540650       -2.94943829022599       -2.06796646656852
H           11.96244274175318       -5.31445781466641       -1.50130014684665
H           10.03784922680481       -5.86217195312768        1.23153894936797
H            7.93310679563397       -9.40793343240431        2.65751005342194
H            5.85252664185767       -6.14788940691948        1.76591184386262
