55
 energy: -10.604711002140 gnorm: 0.000896770562 xtb: 6.5.0 (97a52f5)
C            1.18292345648727       -0.17868985712435       -0.83533623796136
C            2.59577356619557        0.17641882424361       -0.34761775115375
C            3.56125555769542        0.42335853507373       -1.51758135337249
C            2.56660562524038        1.37397713760620        0.61361530254321
C            2.19754992433439        2.67868429808003        0.36724289370134
C            1.74668126277743        3.20498949724704       -0.83110261130006
C            1.40169769865531        4.55277427919331       -1.04318814500793
C            0.97397391310295        4.95253749474886       -2.29484244414545
C            0.62247858918512        6.28021380512625       -2.55950902510558
C            0.18767653927270        6.70753436212819       -3.82849577832004
C           -0.14894218262149        8.01140020452262       -4.05174582163147
C           -0.06974412714068        8.96154884942827       -3.01698650411359
O           -0.40373504405458       10.28460638765388       -3.20670274277564
C            0.36057454397767        8.54296740963114       -1.76163117194432
C            0.70921998867125        7.22460585489734       -1.50768898598007
O            1.13167335388490        6.86943131403378       -0.23700021701879
C            1.48542371102909        5.56092441607862        0.02842716367347
O            1.86687327798033        5.22738423789451        1.13988695830961
N            3.01516106431555        0.92338622165332        1.84054099613327
C            3.21290461624714        1.76913453110439        3.02657537700413
C            4.53066440671012        2.52740581707896        2.96144850950621
C            4.77758422822706        3.41668528624307        4.16295352314905
S            6.40248879241537        4.27544044540129        4.05276942586613
O            7.09235707460619        3.65014822835935        2.89456615598014
O            5.99709745900489        5.68954644495285        3.85858307401291
O            7.00065009365305        3.96198933602781        5.37360126672203
C            3.37708805249417       -0.44357668123145        1.81332107707698
C            3.90071796260591       -1.26246705002331        2.80638548717271
C            4.17213310743789       -2.58011001515481        2.50612204532040
C            3.92989724005121       -3.08146075577235        1.23638854152513
C            3.41291302719792       -2.26895704266368        0.24247773943541
C            3.13777117054413       -0.94958915144497        0.53441028034050
H            0.75117874491212        0.61988574105250       -1.43444128936584
H            0.52301029211213       -0.35642948945768        0.01281681721343
H            1.19928891754616       -1.08172555835858       -1.44375643998858
H            3.22571928374119        1.23870258044698       -2.15403043324005
H            3.65267869796523       -0.46701800364066       -2.13774887636569
H            4.55279665627160        0.67529813335829       -1.14371508924263
H            2.27423522754127        3.36190457781167        1.19129945714816
H            1.64996417840533        2.54468127238365       -1.67158909670797
H            0.91025162814705        4.22947441116346       -3.08754485784782
H            0.12383049386733        5.98849998391358       -4.62690521545758
H           -0.47947077271449        8.32409437976501       -5.02557831792112
H           -0.69073651184473       10.43886911077129       -4.12487687914613
H            0.42451245317855        9.26181496725662       -0.96741128994276
H            3.17346071370847        1.13940493020937        3.91872837950745
H            2.36809101839322        2.45701812043315        3.11593983164752
H            4.56485343003592        3.12748213888038        2.04405930020871
H            5.35548860712803        1.81246977349133        2.85266810890319
H            4.76253414307782        2.83671050329463        5.08528288204688
H            3.99797678032807        4.17292211686203        4.25118189615427
H            4.09301902943182       -0.86947544229749        3.78835349301111
H            4.57777697667455       -3.22715886939208        3.26613025817369
H            4.14855550461936       -4.11422108113543        1.01969257882617
H            3.22766655723192       -2.65216696170366       -0.74523224533759
