96
 energy: -19.168341026526 gnorm: 0.000788270810 xtb: 6.5.0 (97a52f5)
C            0.96014718536039        0.03747827985902        0.69383305747681
C            2.35095386169031        0.03738257328765        0.03976396492497
C            2.26077748566901       -0.05321710730699       -1.49110120464094
C            3.17682551534364        1.25732053826482        0.48020143386901
C            2.89543258302809        2.61272416756408        0.29551731199809
C            1.80277684208939        3.13157261903375       -0.34904427955729
C            1.52258981375285        4.52316790956244       -0.50095727447495
C            2.36927115506694        5.52982875522803       -0.00392236788726
C            2.05918054812166        6.85484031688993       -0.16178231937187
C            0.88894836139443        7.25648854290226       -0.81949460250342
C            0.55363664741672        8.68062777806037       -0.97094878392078
C           -0.77783122383846        9.10705208084182       -1.04397691358574
C           -1.09141396384366       10.43598248560750       -1.16450033678343
C           -0.09160400087215       11.41626302376822       -1.21589198075060
C           -0.41944063164344       12.84359271163843       -1.34935689583304
C           -1.55861833516022       13.39193645437786       -0.73304601664531
C           -2.12728144214959       14.67455835447779       -1.18700246983976
C           -2.16317642641685       15.01658401366641       -2.54333812027356
C           -2.70513640265339       16.21084609309304       -2.95834911575570
C           -3.23029418094559       17.09266894973568       -2.03400927393075
C           -3.21410261224082       16.77268928494283       -0.69035577136554
C           -2.67302048959471       15.57956828198935       -0.27034654363380
C           -2.21510217576510       12.71021938555919        0.39893666898464
C           -1.46870782541905       12.06557131526171        1.39170153691695
C           -2.08823867469282       11.44011983721023        2.44872581882177
C           -3.46601099933303       11.44582264168627        2.54703013370424
C           -4.22311291309365       12.08323348275951        1.58342056199506
C           -3.60836440583633       12.71017955110745        0.52424145992231
C            0.49039415431316       13.68892079320401       -2.14906726676902
C            1.05802774252234       13.20792023778446       -3.33306819772968
C            1.91231165786205       13.98980332381031       -4.07605185118609
C            2.22546665918235       15.26770061529693       -3.65564254733965
C            1.68225410184669       15.76081660702239       -2.48545637044471
C            0.82764025722822       14.98282337230987       -1.73899830091778
C            1.24071379859608       10.98732495006967       -1.16039258515040
C            1.55389865477533        9.65828542534818       -1.03654807726096
C            0.04556761188047        6.25453123205966       -1.31751209319207
C            0.35204962787183        4.92825159261023       -1.16541500932775
N            4.27324089712455        0.79339810431967        1.14382112728987
C            5.28267587569854        1.62803822365351        1.81276704797716
C            4.80105029541988        2.11757806756686        3.16950669837420
C            5.80833260242858        3.02711492655626        3.87291921572553
C            5.31096780354562        3.54604528470143        5.20535844408650
S            6.55926922673787        4.63589707145220        5.99965732068068
O            7.71394833305991        3.72558287874130        6.24243226279053
O            6.79367681213057        5.70537349838686        4.98856918342184
O            5.85193966864832        5.08553745399865        7.22896876676222
C            4.29200454085077       -0.62549609459004        1.23503193003539
C            5.19966985731697       -1.48307189931674        1.84266995201894
C            4.97270555826552       -2.84224157169533        1.78154248765968
C            3.85869863685974       -3.34651783412132        1.12796485581039
C            2.94937167697237       -2.49502086689919        0.52532455879690
C            3.17003501875873       -1.13438246209428        0.58163073258848
H            0.35312980096706        0.87457399286222        0.35670237044164
H            1.05035153029702        0.10373968468637        1.77728666651556
H            0.42264633321827       -0.87980958003617        0.45740170821019
H            1.71318309646815        0.78656586646277       -1.91340609969574
H            1.75440484972221       -0.96855871343740       -1.79431579427021
H            3.25733229779036       -0.05910763801391       -1.93073501313058
H            3.60262830098785        3.30480007401664        0.70921690792584
H            1.08909720060126        2.45252395225853       -0.77454930704924
H            3.27233628036464        5.26085567888654        0.51294383952699
H            2.71078997239237        7.60477974712770        0.25091336802405
H           -1.56719906536011        8.37946179619921       -0.97620206482810
H           -2.12135020465244       10.74163922956612       -1.22221097943123
H           -1.76298376706877       14.32636297147346       -3.26525285093912
H           -2.71975452140797       16.45909678482823       -4.00695303775552
H           -3.65347147213612       18.02829083930929       -2.36096465298224
H           -3.62585467392617       17.45969854659545        0.03065249918683
H           -2.65449211722308       15.33401678470256        0.77733259020530
H           -0.39502605125308       12.06777843066292        1.31964135058350
H           -1.49742077397426       10.94509566786865        3.20185612270675
H           -3.94982690080786       10.95469574873417        3.37536598702042
H           -5.29793724027616       12.08904282111480        1.66161218409087
H           -4.19850205458743       13.20108242954067       -0.23008178391713
H            0.80831119175884       12.21470920309635       -3.66393474942298
H            2.33748707908395       13.60459563633727       -4.98828830786487
H            2.89378694165041       15.87911314628188       -4.23949587991455
H            1.92849853002128       16.75697978437912       -2.15635038296909
H            0.40967040497337       15.36452589849379       -0.82382026004833
H            2.02442248528074       11.72354525143476       -1.20359092836290
H            2.58599390742851        9.35630570306691       -1.01046799386589
H           -0.84703714661110        6.53599631593530       -1.84785479968979
H           -0.30929792603747        4.17570475689337       -1.55909532933899
H            5.53201721685049        2.46930181868210        1.16036561928271
H            6.20773374114768        1.05485190527932        1.91543862820135
H            4.56758405307145        1.25581740958318        3.80592529679165
H            3.84791435875693        2.64575448360853        3.04976607592907
H            6.05791804700726        3.87360969587095        3.21997828157136
H            6.75476378780112        2.48940221492410        4.01576145603108
H            5.09093621368055        2.72568388543496        5.88862155674131
H            4.38941001481278        4.11592737718379        5.08507039085286
H            6.05868256257467       -1.08881387385859        2.35451501321212
H            5.66895011225385       -3.52000160322115        2.24780543547574
H            3.69772272170051       -4.41131295708600        1.09094704642119
H            2.08006651737696       -2.87849641881874        0.02059985779612
