54
 energy: -10.841369143346 gnorm: 0.000568071298 xtb: 6.5.0 (97a52f5)
C           -0.88261755619018        1.67037599130705       -0.97884711464444
C           -0.54716443261587        0.17504954188194       -0.92440984545504
C           -0.24538470273887       -0.40072385737167       -2.31316475776951
C           -1.66852983360849       -0.61818493382667       -0.22892146170510
C           -2.99901142786580       -0.78342107525297       -0.56945760835235
C           -3.69886710106802       -0.27165688421585       -1.66216231030048
C           -3.51996467005646        0.54241703325232       -2.85979586684631
O           -2.59669866114065        1.13184966381431       -3.41332869738845
C           -4.92780915306951        0.39879488912757       -3.18237936994854
C           -5.70119291584756        0.88842806783807       -4.23280261092598
C           -7.05680859959774        0.66848482752470       -4.36696037686397
N           -7.82214709145957       -0.04971781746333       -3.50331402357661
C           -9.17718270867870       -0.09540500630888       -3.86990290322321
C          -10.25805567560623       -0.70741577002799       -3.25142604902808
C          -11.50355537752174       -0.58678066815236       -3.83010365394248
C          -11.67360386700322        0.13125389009593       -5.00512625468007
C          -10.59730079032174        0.74399010789786       -5.62434803324068
C           -9.34756894919781        0.62981723581310       -5.05393544891438
C           -7.98264750461661        1.18082800320048       -5.48103845576373
C           -8.00120205496793        2.71403291152644       -5.51022126904573
C           -7.56631667487773        0.60322424563599       -6.83923076567132
C           -5.10692030563432       -0.41625480117352       -1.98845154426122
O           -6.04013955133114       -1.00182756832272       -1.44396384970111
N           -1.12137311804548       -1.17640196764169        0.89158432264659
C            0.23881769006807       -0.86405868788906        1.05950815285417
C            1.12945626940648       -1.23209078939788        2.05858578337064
C            2.42954821411109       -0.77935452462165        1.98350961771171
C            2.84025605585519        0.02630655090187        0.93142468535848
C            1.95418599974032        0.39436631969287       -0.06678017392270
C            0.65152402300763       -0.05213106101692        0.00113263125668
H           -1.76390584318933        1.85246482385294       -1.58904189782867
H           -0.05613719682609        2.23805384266710       -1.40357257625636
H           -1.07900251402202        2.05462178875859        0.02113176083300
H           -1.10582298675946       -0.30743293242792       -2.97134094511976
H            0.01178901918855       -1.45659556519990       -2.24166021742322
H            0.59084236524683        0.12099780786790       -2.77609509361955
H           -3.58387467334783       -1.38152201408496        0.10689509996137
H           -5.20477319552988        1.48247878835290       -4.97813164478712
H           -7.41577353525650       -0.49346758975458       -2.67749140128506
H          -10.11205168690185       -1.25927211201606       -2.34013158745832
H          -12.35457816876216       -1.05559442827485       -3.36397015765790
H          -12.65531838385314        0.21400388180781       -5.44148087490177
H          -10.72366173770910        1.30270332857708       -6.53495397012667
H           -8.29219177541021        3.11148174203154       -4.53883414954403
H           -8.71057629040119        3.07983801194193       -6.25120090835418
H           -7.01803682440072        3.11171005617775       -5.75769523873470
H           -7.55648054267265       -0.48533036274456       -6.80468862648068
H           -6.56954742615346        0.94171206777893       -7.11825991559327
H           -8.25977020580657        0.91019596447396       -7.62088618585067
H           -1.62773348520414       -1.75225428465762        1.55917111595482
H            0.79819311386752       -1.85705150032707        2.86856596838382
H            3.13419553446681       -1.05475835032966        2.75093444375551
H            3.86057884605998        0.37015960155648        0.89007691119877
H            2.26691206931643        1.01868358567137       -0.88516264213837
