27
 energy: -5.158446218650 gnorm: 0.000808627896 xtb: 6.5.0 (97a52f5)
C            0.88798147297912       -0.00978088331456       -0.13890508338014
C            2.42238647701551       -0.04856317447371       -0.11071851911431
C            2.97690536169151       -0.03018254283350       -1.54198145593157
C            2.90029444630477        1.24461655355778        0.58236530309987
O            2.57315740926971        2.31579315294508        0.11383534613999
C            3.72292648306072        1.16677911225707        1.76968200342930
C            4.08493994403344        0.00039465828266        2.32080727181112
C            3.68589641534539       -1.26565596923416        1.76910382083588
C            4.08829796347591       -2.45749074220504        2.38397075403287
C            3.72820479004950       -3.67480009685588        1.87217872696443
C            2.94413009069474       -3.75414333940834        0.71683553049881
N            2.57843520940365       -4.97527746343024        0.19066131180241
C            2.54004505659412       -2.56001993419227        0.10704056425310
C            2.89255730402911       -1.32413415512188        0.60655215559800
H            0.54012755371517        0.90600591110805       -0.61501226420037
H            0.48757518497075       -0.03487229625261        0.87374396327181
H            0.47712741401243       -0.85526897876227       -0.68834864418601
H            2.67865069833727        0.88390647542350       -2.05368205462491
H            2.61330270249834       -0.87748496502145       -2.12106853438981
H            4.06535293532433       -0.06882788261410       -1.52972618442611
H            4.03835712543872        2.09647761315643        2.20802415463259
H            4.69659208021503       -0.00467641185179        3.20676808180607
H            4.69039976066076       -2.40498779649964        3.27479723988727
H            4.04237065033062       -4.58464567692035        2.35227065464411
H            2.97301558565507       -5.84041606974155        0.51467594114025
H            2.14357872302693       -5.06499478358931       -0.71052145909157
H            1.93438116186736       -2.62158031440797       -0.77777862450311
