34
 energy: -6.303312178459 gnorm: 0.000914304008 xtb: 6.5.0 (97a52f5)
C            1.08313552449002        0.04651021931025       -0.50711274055580
C            2.59261303651803        0.03588184502881       -0.22737107806636
C            3.37402869172347        0.10777225466661       -1.54686510993012
C            2.92066614084204        1.31561594837965        0.57075438852321
O            2.68363894321639        2.39648280420453        0.07142169919260
C            3.50075309121077        1.21313592935223        1.89312343840677
C            3.78192336088497        0.03654547965199        2.46816236112609
C            3.53050688862200       -1.21855139366485        1.81152200114174
C            3.85271173892953       -2.42180951294602        2.45024858337925
C            3.62516464547647       -3.62779062408397        1.84295503543623
C            3.05958197494793       -3.68153682220993        0.56734236759508
N            2.82914444214289       -4.91724466566863       -0.06996786967745
C            1.78217779030800       -5.18226465349370       -1.09821096294348
C            1.49321736813752       -6.54720599071757       -0.44753168313493
C            2.55458113537323       -6.21258941671505        0.61600692840059
C            2.74527119139152       -2.47830781885178       -0.07164523707076
C            2.96589496018226       -1.25300748246506        0.52201709444380
H            0.79558798651130        0.96668939338170       -1.01411966094142
H            0.52198558091061       -0.01247714593461        0.42492087198018
H            0.78744839212397       -0.79312619016214       -1.13489647371652
H            3.14726355754985        1.03339442481620       -2.07422386089706
H            3.12706293725614       -0.72486669171327       -2.20391650461042
H            4.44647055056253        0.08408874737449       -1.35676586177615
H            3.70440812498632        2.13339779704633        2.41051783715119
H            4.21372960811335        0.01286651416989        3.45418054539386
H            4.28876344983329       -2.38898923611580        3.43388139792069
H            3.88782258791083       -4.54579667232341        2.33856783728511
H            2.20803703638221       -5.22770490103939       -2.10898599775424
H            0.95593040012168       -4.46278470665131       -1.03697740366473
H            1.75204918925036       -7.40633912788101       -1.08040629370181
H            0.47476407251700       -6.64793585203363       -0.04914459710210
H            3.43617471954142       -6.86631709156021        0.61728424560958
H            2.15697426397316       -6.06372657360891        1.62792790667887
H            2.32422661805825       -2.52015878754322       -1.05886320412389
