26
 energy: -4.943982802859 gnorm: 0.000498106545 xtb: 6.5.0 (97a52f5)
C            0.88005036289046        0.02844323804565       -0.15389753247875
C            2.41420402119390        0.00537188522685       -0.10526884198785
C            2.98911780367208        0.04295898529729       -1.52783032726966
C            2.86815129741224        1.29714714213677        0.60541147224653
O            2.52019243208408        2.36665333268274        0.15283447102817
C            3.69752947859502        1.21888935960025        1.79016796364214
C            4.07769170993021        0.05352080764218        2.32571363281435
C            3.68774276377658       -1.21383780147555        1.76363296735521
C            4.10108680450673       -2.40510178750051        2.36798615882551
C            3.74266792170958       -3.62276277243639        1.85524354303314
C            2.94978831384829       -3.70052524498204        0.70681948782260
O            2.56751800892600       -4.90498065581968        0.15811445626672
C            2.53989399422446       -2.50589791883799        0.10524262183964
C            2.88971074786831       -1.27039800089910        0.60668327112682
H            0.52875278599972        0.94803341762126       -0.61989279042885
H            0.46626395775115       -0.01628499114884        0.85254046703845
H            0.48454603669822       -0.81186756219685       -0.72189428957196
H            2.68848596997300        0.95819663784717       -2.03592249201218
H            2.64444067988654       -0.80322328978077       -2.11986393479220
H            4.07755449509943        0.01697467145993       -1.49976159226678
H            4.00192420019370        2.14845755750650        2.23624635899705
H            4.69371568844538        0.04644816413164        3.20841843255073
H            4.71207945142035       -2.35440726333973        3.25273076818702
H            4.06851430856403       -4.52974159087451        2.33170643663621
H            2.92737144262393       -5.64497207307965        0.68417347496410
H            1.93439532270661       -2.57564424682662       -0.77861418356620
