34
 energy: -6.837088697271 gnorm: 0.000742921971 xtb: 6.5.0 (97a52f5)
C            1.30423914543173       -0.25631981103616       -1.55230972854134
C            2.49334877724153        0.19059685016305       -0.69221977443386
C            2.22096604897898       -0.03509262465378        0.80082652137514
C            3.78599285372652       -0.51645608955180       -1.12908940175592
C            4.68050864792944        0.38504582034793       -1.56191495820088
C            4.13671526036879        1.72981579126061       -1.47624621905495
C            4.69635874110363        2.95426692234748       -1.81513076532430
C            3.94693953212362        4.09788895545018       -1.63600354107475
C            2.65920850957176        4.02795122637726       -1.12837578244152
C            2.09571657720463        2.81069365241984       -0.79028774514439
C            2.83723872990195        1.66071580352674       -0.96481468676653
S            6.20975901131869       -0.41839402254262       -2.08337715659091
O            7.33292774949650       -0.05957380898554       -1.14010640858776
O            6.37981953419381       -0.29831430255319       -3.57866866718827
C            5.52522051409849       -2.03902729231720       -1.66179763306575
C            6.12344399226747       -3.26886339434819       -1.77611089792304
C            5.41735774482241       -4.39518133204106       -1.39584477341302
C            4.12733707531857       -4.28048783535966       -0.90669976761601
C            3.52722330228382       -3.04392276046077       -0.79090604966910
C            4.23358631230545       -1.90617724221448       -1.17248338548493
H            1.09426588680060       -1.31496876114328       -1.41077862416581
H            1.51382224340820       -0.09214124638555       -2.60838191271782
H            0.40688802121770        0.30427013527510       -1.29471904214610
H            2.03728323291212       -1.08718987862761        1.01114087128648
H            1.35000158692017        0.53174318663716        1.12632358625564
H            3.07469115437530        0.28393307360346        1.39706415813049
H            5.69617294830218        2.99461782787797       -2.20982734572956
H            4.36743260162180        5.05601626861064       -1.89334334511578
H            2.08891703653758        4.93245118599785       -0.99557408395379
H            1.09593910050335        2.75073643192011       -0.39785412237626
H            7.12685360317701       -3.34327169187737       -2.15892553329098
H            5.87413394327360       -5.36726543161411       -1.48220970629328
H            3.58667496927188       -5.16518797371775       -0.61350441886532
H            2.52572561198350       -2.95217763239659       -0.41091966011876
