109
 energy: -20.018301466389 gnorm: 0.000892478660 xtb: 6.5.0 (97a52f5)
C            2.95029312086447        4.57776242163729        2.96922456609841
C            2.45759282235941        5.97747521510021        2.83527702124801
C            3.19518385477071        7.03165698922966        3.57800830246214
C            1.16993298900041        9.44558168268468        3.23489280750681
N            1.55107708372901        8.78372027821296        2.24378623375564
C            2.32446367516730        9.47859115833375        1.17988958155593
C            2.93454605508777        8.53437190111684        0.14566244298177
C            3.93551633643060        9.20957466541962       -0.81266336270769
C            5.38960829769319        9.16682993558201       -0.32675065577826
C            5.64303738701354        9.92318922587082        0.97007704587847
C            7.08479840313744        9.87844013295380        1.38355571297262
O            7.95809733325637       10.18738511834074        0.59605975964986
N            7.35432624203967        9.49072641480308        2.68269620729880
C            8.68126434222184        9.67090041104369        3.23742987147092
C            8.83611927366252       11.03260955349930        3.89452619644344
C           10.19496325257778       11.25107722359926        4.53803940746873
N           10.25743760553171       12.51946411479360        5.23954409247091
C            9.58192293991579       12.68640854561676        6.43048998913020
O            9.05831916258934       11.76092584957921        7.02166430802553
C            9.52716484185063       14.07258653890854        7.00310880068704
C           10.76887080915014       14.40176184776355        7.82243234061780
C           10.74540204792236       15.81380732494240        8.40613832618291
C           12.00453620235751       16.14939506583578        9.20145358702776
C           12.02350069145535       17.57545002161883        9.74804450534342
N           10.96631630805395       17.84572377066177       10.74264795648749
C            9.73545589335670       18.22620175066301       10.26457613745475
C            9.32717615718954       18.58161044347923        9.11485646364937
C            6.80803313389800       16.46161454337743        7.16265411483716
C            6.65782630247270       16.31301759739156        8.40209020129627
C            6.91104222946321       14.25175549763796        4.11592638292995
C            6.28106723362640       13.53134157793917        4.93093362901324
C            4.50587612070836       10.31237999554480        4.63935841980799
C            5.23366622725042        9.70887313543782        5.46737863303060
C            9.67644258873542       19.35281308786407       13.04497762307520
C            8.69478062874615       19.78579763612334       14.07580217632854
C           10.06311675062777       20.37465232727557       12.03115155019716
C           10.32493055041835       18.12509879448913       13.15288884103590
C           10.28261092851990       17.40985985595383       14.39539113945001
C           11.16676554073857       16.41531255323484       14.67270269178488
S           11.11091667746569       15.59003337666140       16.27764842454311
O           12.50666743333435       15.69532034351552       16.79494047245121
O           10.11205108893128       16.35501280237902       17.08077272965696
O           10.68425173496182       14.19774257810032       15.95196129144887
C           12.12462688841073       16.04324945068669       13.74074158082198
C           12.13513594423095       16.61597100700326       12.48868822712133
C           11.18827782703004       17.57664215959843       12.11223945116416
C            0.81453629141412        7.58969156394107        1.86108643871300
C           -0.36869222851569        7.76102135481225        1.15931485457033
C           -1.07295942499660        6.68746982940606        0.65759459286662
C           -0.59695574810262        5.40044650358175        0.84409781559394
S           -1.51629808721294        4.00030721120329        0.17048859447204
O           -0.76382168179176        2.78673577917002        0.60559331957237
O           -2.87036525164237        4.12175014030179        0.78560878117000
O           -1.49204329690500        4.22605461587490       -1.30432523804030
C            0.55470165706857        5.18035424905974        1.53146138897688
C            1.31503543729748        6.25290095930008        2.09585859965340
H            2.24449284587124        3.96799791051800        3.53418830149989
H            3.90744229007120        4.53835859000381        3.48971292689339
H            3.09727656214585        4.11954799301571        1.99061612322215
H            3.59047611323619        7.78650125044979        2.90073086337802
H            4.03737199038589        6.61951055881480        4.13436555152688
H            2.53968020378548        7.52510491597690        4.29562636495394
H            3.09417894139364       10.08007367676495        1.66707149374773
H            1.65810822003316       10.19590599740467        0.69093104866906
H            2.11762572195215        8.06952165811535       -0.42120741539476
H            3.42851580530045        7.69836168260171        0.65209545996342
H            3.63106411051961       10.24897139500998       -0.98166631595726
H            3.87810574539497        8.73163646963761       -1.80034362407055
H            6.05730848447997        9.56866870519952       -1.09966617246803
H            5.70159960445961        8.12352064684486       -0.19792705436748
H            5.03821416527089        9.50024610153865        1.77598180730920
H            5.33502539806506       10.96807764707203        0.86522773331765
H            6.60852832219021        9.51564517977206        3.38129367282571
H            9.40868789249552        9.55111397558541        2.42713951222104
H            8.88632568154985        8.86773086461364        3.95456292319654
H            8.05908308488356       11.15902491811586        4.65643531795915
H            8.64437049795802       11.81997530080738        3.15727411212073
H           10.99621894984001       11.19240577461808        3.79227386502181
H           10.39761968758926       10.45894665656248        5.26723320621692
H           10.51750654551929       13.32947498178012        4.67364727823179
H            8.63192087757225       14.15989668124395        7.62610849322104
H            9.40214431349196       14.79832529091485        6.19329652592444
H           11.66091309162796       14.27617255613766        7.19765462784230
H           10.87923322636407       13.66737786697923        8.62906953135229
H            9.86272590321943       15.93040431938788        9.04533837361423
H           10.61514723150302       16.54297598026769        7.59787537616621
H           12.88414424066459       15.98207900455120        8.56731007072597
H           12.10134371915740       15.43199019146866       10.02271581815840
H           11.90342387850011       18.29033003800099        8.92862929819951
H           12.98886757500567       17.81473757433565       10.20535471226317
H            8.33971034548542       18.84582366838004        8.87735170102715
H            6.71994379738559       15.72271843251189        6.42018215126890
H            6.41696051185502       15.42585093940098        8.91186122458938
H            7.12205684369244       14.04186185483110        3.10832673203773
H            5.85474487748431       12.58780643548820        4.75017830323455
H            3.66101100938578        9.91408784670549        4.15819980588029
H            6.06502081651572       10.11372829148213        5.96747883602776
H            8.14540623350780       20.66864474672187       13.74706047817999
H            9.19524850942333       20.03629635183878       15.01173069982674
H            7.96219927448917       19.00267707201771       14.27362028970201
H            9.25717177227634       20.54069707180196       11.31592164267283
H           10.95433409892353       20.07408210166591       11.48039037563280
H           10.28563203469876       21.32878638394703       12.51025769414636
H            9.58751568328430       17.70382440653670       15.16121889043224
H           12.83710643713326       15.27717993309748       13.99867806966437
H           12.85717367571562       16.27366316522371       11.77054763088326
H           -0.72482983273896        8.76270148726474        0.99329822483573
H           -1.98915491969117        6.83806040383479        0.11108569921846
H            0.88202128045720        4.16480894411919        1.66196734727037
