59
 energy: -12.412077996642 gnorm: 0.000953295729 xtb: 6.5.0 (97a52f5)
C           -3.22695076783022        1.78926993826450        1.10265730821979
C           -2.12504644786167        0.85841502281639        0.56858214562226
C           -1.90854798949576        1.12859366568781       -0.92968439620294
C           -2.54644732645388       -0.62949517122923        0.77873221067298
C           -1.43975564691626       -1.61392320146835        0.51300242864988
C           -1.80008004142189       -2.93110322710356        0.07584263204584
C           -0.93773615629979       -3.92276775690120       -0.23968936112379
C           -1.30623021418107       -5.24073619195353       -0.70452507312267
C           -0.30265529835603       -6.15972825445769       -1.03515841623734
C           -0.61338262736086       -7.41290469536357       -1.49952415198634
C           -1.94032251863938       -7.80682815968411       -1.65353312574429
N           -2.26433973363205       -9.10962656585031       -2.15753855177435
C           -3.22056321999780      -10.00149258468945       -1.62264823300169
C           -4.03870392842294       -9.89846793609662       -0.49845877934419
C           -4.88003600622804      -10.94089013048231       -0.19440181096186
C           -4.91851339690785      -12.08971885092352       -0.98773110918013
C           -4.11068136823406      -12.21341685916539       -2.09289511144584
C           -3.25069085129031      -11.16306500128631       -2.41238800706636
C           -2.28601779687175      -10.98624798030231       -3.47314940536296
C           -1.90406038289422      -11.80254001114721       -4.53752759297940
C           -0.94581018342603      -11.34312403003054       -5.40920774511251
C           -0.36609560653831      -10.08370815752818       -5.24027963595327
C           -0.73110650550114       -9.27094343656569       -4.19489625800970
C           -1.69367693095316       -9.72495902789021       -3.29421644904559
C           -2.94517420876492       -6.90264931106476       -1.31799950856645
C           -2.63800921866020       -5.64765973355876       -0.85480361381842
C           -0.14641347795882       -1.23335361315685        0.68916385537254
C            0.25589398612476        0.07481635452818        1.09387086866583
C            1.58292700686226        0.37498460790624        1.24428514033801
C            2.00408848634818        1.64232367583207        1.63817009047526
N            2.34825249593804        2.70388644372313        1.96756884295227
C            2.56514487783164       -0.58352969406063        1.00868658272395
N            3.36952432309883       -1.39936241870796        0.80592821562376
C           -0.79758763562728        1.11650193912399        1.34628608833686
H           -4.16569289512069        1.62125599643333        0.57635069289321
H           -2.94952617608926        2.83437036925603        0.97119674078364
H           -3.40165109236665        1.61927692402405        2.16426479138283
H           -2.82101867832113        0.94377359931728       -1.49501098295752
H           -1.12911452839614        0.48231613369830       -1.33091043015537
H           -1.60887034015467        2.16171783034165       -1.10053821680596
H           -3.40231113301241       -0.85280118500786        0.13411718738694
H           -2.89998645250723       -0.76292281498064        1.80596476564223
H           -2.85303884826144       -3.12506942859270       -0.01321916152903
H            0.11604908659093       -3.73186773926170       -0.16011172576550
H            0.72798258166413       -5.87023520216267       -0.92284326013871
H            0.16684496594426       -8.11531472427250       -1.73470877867238
H           -3.99491354747927       -9.01852518382254        0.11749200791411
H           -5.51862338440650      -10.87285668574398        0.67091801923448
H           -5.58839691227297      -12.89211884761127       -0.72603958499126
H           -4.13028157239471      -13.09679867048193       -2.70622463840091
H           -2.36002297183416      -12.76851504307857       -4.66339403404155
H           -0.64007534938067      -11.95988962649952       -6.23820672322975
H            0.37660825768801       -9.74459920436467       -5.94354770770342
H           -0.29756164045939       -8.29527317109449       -4.06956943382572
H           -3.97124014974500       -7.19738686410502       -1.45132952966591
H           -3.43456970202046       -4.96931400336439       -0.60876660759445
H            0.63679220527415       -1.94371621854214        0.50879959168491
H           -0.41135026908778        2.10402911502543        1.07706922895554
H           -1.00693714331695        1.15698499761741        2.41965771589263
