46
 energy: -9.404263387561 gnorm: 0.000741504961 xtb: 6.5.0 (97a52f5)
C           -3.34897680413690        1.32259684759304        0.00425100844243
C           -2.20626237402963        0.33462285345968       -0.28686049249932
C           -1.97043640772725        0.25709943572262       -1.80446652506090
C           -2.58163746384291       -1.07874499425329        0.25960252511976
C           -1.43551182144267       -2.05422272530767        0.26201073831426
C           -1.74126209375144       -3.45429465869028        0.17513171986613
C           -0.84089082009538       -4.45992594756016        0.18645120381700
C           -1.15320074408005       -5.87020448706460        0.08822509763495
C           -0.12653313732522       -6.81165107267683        0.21995764527333
C           -0.38622030873426       -8.15711426280424        0.12894178177761
C           -1.67454897019596       -8.61393381657160       -0.10090959676894
N           -1.92100049718329      -10.02819915068988       -0.20641127546927
C           -2.80325393554367      -10.63783972265908       -1.07508381840861
C           -2.61640695101359      -11.95858278957715       -0.80910981776879
N           -1.67428889227155      -12.04255475376556        0.16453634686940
C           -1.27290336331318      -10.93677875357972        0.52251088141671
C           -2.70302654369953       -7.69125018924380       -0.23674139900270
C           -2.44953583268167       -6.34387013408283       -0.14342569363081
C           -0.16048235083103       -1.59459836797969        0.34782610172808
C            0.19068686519254       -0.21245809835829        0.42349366376363
C            1.50425310678959        0.16301111182099        0.49146423668905
C            1.87875240832240        1.50209530262762        0.56501652674579
N            2.18320530574665        2.62316741407314        0.62839530331464
C            2.51918525843050       -0.79030962633388        0.48909508960605
N            3.34870034573592       -1.60587889721911        0.48532519886536
C           -0.90334650963757        0.81700883938882        0.42258138909855
H           -4.27156981461328        1.00240508998854       -0.47797652796379
H           -3.10462032462912        2.31817348601821       -0.36373689234999
H           -3.53815862785111        1.39765394517134        1.07419698805143
H           -2.86621589160537       -0.08420669289426       -2.32140838557731
H           -1.16405898459520       -0.43731854517417       -2.03586892110745
H           -1.69981776600593        1.23214882189500       -2.20724607637145
H           -3.40780608486887       -1.48254494811700       -0.33373923912078
H           -2.96398977754324       -0.98072292920165        1.28039675330723
H           -2.78378738387782       -3.70454803147774        0.10571765374329
H            0.20087654059158       -4.21793599291139        0.28259532110229
H            0.87847543365363       -6.46947486763062        0.39668789708441
H            0.40493998590958       -8.88011523869620        0.22171262845129
H           -3.45979092438001      -10.17226013436554       -1.79202461533705
H           -3.12823740801328      -12.78246440031691       -1.29048788310868
H           -0.06953385763539      -10.45870571648389        1.88884784232373
H           -3.70431410007360       -8.04576200279343       -0.40852602038867
H           -3.26018830869098       -5.64761353910499       -0.25847447858035
H            0.64967310949605       -2.29750450015523        0.34806623953941
H           -0.54904523476804        1.73135425986387       -0.06217321584652
H           -1.13262804920174        1.09219258033734        1.45659309249864
