73
 energy: -12.988019665382 gnorm: 0.000560395592 xtb: 6.5.0 (97a52f5)
C           -2.73746333454997        0.65344237417752        1.82142797035292
C           -1.94556508866240       -0.23559120276482        0.84741009540576
C           -2.43154332281926        0.02041485932821       -0.58905766995961
C           -2.15753642494982       -1.73791571263953        1.21499535059358
C           -1.24421713102056       -2.67322624481380        0.47026378094143
C           -1.69153611552793       -4.01207485283588        0.23049820862161
C           -1.05288760628966       -4.93045107193116       -0.53250666853048
C           -1.49506438463927       -6.28237023451834       -0.76574850750479
C           -0.82595413532510       -7.07523845105764       -1.70776331372992
C           -1.22271743395919       -8.36023614407859       -1.96570094026603
C           -2.30710676659672       -8.93685699734174       -1.28974268620169
N           -2.71950375866453      -10.24844703306146       -1.55912885456864
C           -3.76355646801779      -10.91612845069119       -0.76065516766222
C           -3.26421453117465      -11.32594984447435        0.61804226401008
O           -4.33673360331111      -11.58771299879841        1.51851595763316
C           -3.94275831974068      -11.55485701244021        2.87830689133269
C           -2.97429389965798      -12.67052293799090        3.24108872174666
O           -3.57120724832931      -13.94271664247916        3.07172505499203
C           -2.64740488925569      -15.00875220884460        3.21830656390244
C           -1.83268375116759      -15.23475217279102        1.95502186356384
O           -1.06420620036799      -14.09541813932258        1.60265625593948
C           -0.16590053736024      -14.35763299579146        0.52951927471898
C            0.12691750051341      -13.10238731253355       -0.27758910280142
O           -1.04219794189881      -12.63953289238103       -0.93902402909771
C           -0.75682254232582      -11.69500696135573       -1.96336008471322
C           -2.02772819887893      -11.09708385262159       -2.54065030679360
C           -2.96595133109719       -8.14718297551177       -0.33633149144529
C           -2.57553548493230       -6.85843167510725       -0.08371241425057
C           -0.02452676332134       -2.23154894018045        0.05837875442699
C            0.45815191901548       -0.90592962148606        0.26316688718770
C            1.71021320511079       -0.55328128850976       -0.16603337419958
C            2.21115064822118        0.73152902257838        0.02318419250794
N            2.62683261276298        1.80623252490792        0.18526256104700
C            2.52924607380943       -1.47682894463024       -0.80958181761471
N            3.19436077223000       -2.26689370243373       -1.34541055310763
C           -0.42453794532148        0.09609959861920        0.95290058925376
H           -3.80345245404727        0.43680313477822        1.76601745034096
H           -2.59571119776794        1.70767409114380        1.58703913942471
H           -2.41491284796757        0.49192565443894        2.84911322635592
H           -3.49074219405875       -0.21233247112638       -0.68987789635343
H           -1.88287087272867       -0.59671967723213       -1.29911924537270
H           -2.28756720738800        1.06300303393390       -0.86947478604055
H           -3.20031688403136       -2.00953498208776        1.02363897922687
H           -2.00285901275939       -1.87240153664736        2.29010535227133
H           -2.62612407891390       -4.28733516108398        0.68373791925704
H           -0.15143361632193       -4.63851169586589       -1.03850894371763
H            0.01055586858034       -6.65575949086403       -2.23973051033568
H           -0.68785421819852       -8.93612224527102       -2.69876528305853
H           -4.14603984485277      -11.78745707140368       -1.29840330389906
H           -4.61645566124914      -10.23989228389869       -0.66594908163656
H           -2.64174485136753      -10.53033890261022        1.04172273992499
H           -2.63745038257679      -12.22353931526468        0.55266542862593
H           -4.86026687483396      -11.65545220771222        3.46917187977003
H           -3.52671942831638      -10.56354169091932        3.09442018649131
H           -2.64845490446798      -12.58872078900312        4.28516895703412
H           -2.07787116908491      -12.62618992589399        2.61546662700976
H           -3.22710934559437      -15.90294753485396        3.47901302763633
H           -1.99416983153240      -14.78873157071397        4.07003786637880
H           -2.50118311324235      -15.45004300331999        1.11380898612840
H           -1.15150247913909      -16.08645563320102        2.07056593551578
H           -0.61514773502270      -15.11294210055535       -0.12518189366444
H            0.74683430472178      -14.78907798101551        0.95812399960063
H            0.90199900250413      -13.28925753089545       -1.03035829820858
H            0.48104198132630      -12.29927847123612        0.37776848250567
H           -0.17050775051580      -12.20682839112137       -2.73622622115045
H           -0.12536900070625      -10.91137161955018       -1.53092730996151
H           -2.70012586004781      -11.90054299159546       -2.85138693975425
H           -1.83026275637028      -10.50801466692246       -3.44063861957906
H           -3.79284992765633       -8.56120003858887        0.21148112880906
H           -3.09898243777996       -6.28570464038996        0.66033243924076
H            0.63450720603738       -2.91280747628953       -0.44396759546797
H           -0.24633650713205        1.09111700089648        0.53453750844625
H           -0.13752148999903        0.15603131782983        2.00717441249744
