68
 energy: -15.280101845248 gnorm: 0.000778860548 xtb: 6.5.0 (97a52f5)
C            1.28896284319662        0.24302851578656        0.84723514427660
C            0.09096373772047        0.09519712729581        1.03981384300952
C           -1.29117320672658       -0.13870023322907        1.20013334626570
C           -2.10847452631436       -0.32069820606820        0.08879985243766
C           -3.45750386535980       -0.56411425806919        0.23902321442188
C           -4.01201561213039       -0.62932656556555        1.50114397796403
C           -3.21482705097628       -0.45149330932120        2.61371390661631
C           -1.86522551956457       -0.20881519973411        2.46536667747494
C            2.65991475230298        0.31534199059171        0.53613869574799
C            3.07385985547905        1.17066857899184       -0.50102026781580
C            3.50182223102378        1.88148534720928       -1.39830639624334
C            4.07743117548564        2.66901961061573       -2.41738844104782
C            3.33425729249294        3.63066004939111       -3.09399372274000
C            3.91136914352577        4.39434930876957       -4.08703199889812
C            5.23807844663633        4.20925605862444       -4.42025949994933
C            5.98870188291406        3.25929116509462       -3.75761014933742
C            5.41374169044735        2.49591922054123       -2.76375456790970
C            3.52702989803256       -0.51222425941974        1.15838999775981
C            4.94787879476215       -0.65599367494583        0.82246578428005
C            5.78461374075879        0.44058062182651        0.61514775031885
C            7.09750479050310        0.25914244214341        0.23755108184191
C            7.59840260131851       -1.01112876457184        0.04632293205799
C            6.79116893554153       -2.13460370773614        0.23561678265443
C            7.33100782905489       -3.47252386915184       -0.00640007658398
C            6.63590475678395       -4.57482847431984       -0.36591773742254
C            5.24495090170201       -4.57776880444963       -0.58565751108774
C            4.03333663757923       -4.54146468602884       -0.74523019508079
C            2.63014993835103       -4.43902860566473       -0.86356725133115
C            1.86341393793030       -5.51530332628844       -1.29821425694949
C            0.49105498827448       -5.40951977754493       -1.39249723350450
C           -0.13829606592198       -4.22930280873454       -1.05098521428951
C            0.60785442013712       -3.15321587456744       -0.61770309902142
C            1.97935088235522       -3.25612145953942       -0.52879339964779
C            7.32925830540627       -5.78467314427268       -0.56255263103182
C            7.91435588228516       -6.84413510629086       -0.73504276912056
C            8.57714602116791       -8.07289403221620       -0.94172164260184
C            9.79242830043285       -8.12238020708019       -1.61756419433246
C           10.43631048828963       -9.32464334672605       -1.82290502447112
C            9.87745359868677      -10.49716570669253       -1.35630902550263
C            8.67272371684614      -10.46523990038479       -0.68368938267387
C            8.02749625845765       -9.26389727350621       -0.47772706986053
C            5.47899933682702       -1.92998661898599        0.64951620189001
H           -1.67236483500777       -0.26868770551405       -0.89444070171869
H           -4.07916504626459       -0.70353044839995       -0.63036934815617
H           -5.06657616905795       -0.81925461714839        1.61785910770034
H           -3.64704276679688       -0.50349109242741        3.59970643312320
H           -1.23871877564121       -0.07275632475421        3.33041609259025
H            2.29990513497958        3.77164443733254       -2.83028324507277
H            3.32543967184693        5.13689698962616       -4.60374978983150
H            5.68758737546053        4.80624953360772       -5.19695123132011
H            7.02492501058146        3.11458513655866       -4.01635783679973
H            5.99480193391822        1.75653228051434       -2.23932924916502
H            3.13107542910222       -1.18675772065308        1.89919196914771
H            5.39217173501748        1.43306498589446        0.75376047425695
H            7.73339193148470        1.11535750084443        0.08143581817359
H            8.61977781110262       -1.14765626791228       -0.26539380956943
H            8.39827785012304       -3.57701100362281        0.09025005350100
H            2.35706141775209       -6.43646572624093       -1.55746674785076
H           -0.09114327198235       -6.25137774084244       -1.73027902163222
H           -1.21092751044109       -4.14924637096445       -1.11978848219075
H            0.11970200095508       -2.23499457106155       -0.33648646565844
H            2.56209092227428       -2.41757454254303       -0.19131845300442
H           10.22445381987525       -7.20553156778434       -1.98114844925425
H           11.37662725975508       -9.34860020544443       -2.34918158711570
H           10.38081173524869      -11.43652287292288       -1.51758294066074
H            8.23535486036647      -11.38039958350236       -0.31907615454291
H            7.08708651000720       -9.23483553615158        0.04598445633482
H            4.84264380805402       -2.77570581146660        0.82558268273824
