58
 energy: -12.126002120221 gnorm: 0.000753731640 xtb: 6.5.0 (97a52f5)
C           -3.46316461460325        1.34518099049188       -0.42195874790366
C           -2.27374232455279        0.37251502261282       -0.50751093903955
C           -1.81535716843850        0.25063750317594       -1.97061962372857
C           -2.70314050410452       -1.03054723521947        0.02646753768123
C           -1.55493815828035       -1.97904068989637        0.24309864082917
C           -1.81633953814433       -3.38663915986014        0.17136728818588
C           -0.92588648603916       -4.36699329133809        0.43463194244385
C           -1.21576338603032       -5.77305477332482        0.31903950947729
C           -2.28924545924717       -6.35099386271527       -0.30682312576424
N           -2.07048904331239       -7.71073072521475       -0.24381587154413
C           -2.93802759074476       -8.72734704869148       -0.78815824141892
C           -2.95461448824289       -9.98814124011684       -0.21394890620529
C           -3.76924746072274      -10.97715181910771       -0.71908209166859
C           -4.57529807955098      -10.71556166058187       -1.80836258813912
C           -4.56248878165575       -9.46454631345812       -2.39138536565298
C           -3.74786448569274       -8.47514105526076       -1.88609097492248
N           -0.93643994857824       -8.02124407125720        0.39150093360013
C           -0.39690860928649       -6.87308551778967        0.76115927621391
C            0.84150281436349       -6.78693778848588        1.54453631865426
C            1.83117591740593       -7.75529869192575        1.38250786022749
C            2.98978545157220       -7.70707451442112        2.12006669421960
C            3.18632946207907       -6.69885233136906        3.04515962296855
N            4.41710119526046       -6.65407379453454        3.83602815230646
O            5.28035194558453       -7.52329210076435        3.64224036165379
O            4.55327276467221       -5.74947288473140        4.67350431160484
C            2.20591458922133       -5.74194796821854        3.22945623761934
C            1.04633691939534       -5.78393681819191        2.49319757990155
C           -0.31431571268099       -1.48863402273279        0.50149699225159
C           -0.00017350162779       -0.09876333337066        0.57043811791626
C            1.28381428112655        0.30559016658721        0.81457317978778
C            1.62406510087442        1.65333161797147        0.88883589311959
N            1.89830597910195        2.78205169790143        0.95103879666910
C            2.29991779585349       -0.62858113058026        0.99415187869511
N            3.12712939966413       -1.43339242166127        1.13864312364096
C           -1.09743360956930        0.90699496935632        0.36771752693073
H           -4.29990774167890        0.98927559350003       -1.02151696902278
H           -3.18397878591726        2.33289968884847       -0.78619621090611
H           -3.80853407683799        1.45148040055287        0.60550621260960
H           -2.61941164409770       -0.12498783534265       -2.60188218359243
H           -0.97333881836940       -0.43464469150784       -2.05597429899847
H           -1.50366411344053        1.21757385609203       -2.36306106327353
H           -3.42000521275010       -1.47359229519295       -0.67158050268338
H           -3.24082882723251       -0.90730627179306        0.97165975424633
H           -2.81609009532722       -3.67712594430594       -0.09832436174973
H            0.06983681807414       -4.10339415710838        0.73471784930078
H           -3.11947436423412       -5.86046861709252       -0.78231693877561
H           -2.31840946590481      -10.17918693679520        0.63233856619758
H           -3.77625447923059      -11.95446612660912       -0.26489413686967
H           -5.21258526630887      -11.48892998701353       -2.20485223863555
H           -5.18845857340289       -9.26185567630298       -3.24488172194753
H           -3.72515681828352       -7.50314120625939       -2.34643499055703
H            1.67343033014342       -8.54308108368529        0.66660418966420
H            3.75755032969227       -8.45097642590629        1.99175395103631
H            2.36619076100759       -4.96944414722801        3.96235508320984
H            0.26987608788334       -5.06213770671891        2.67502129394931
H            0.49857417304741       -2.17335132880032        0.64738385897413
H           -0.68849132519618        1.80968495073885       -0.09549495412063
H           -1.48103355670935        1.21537024465653        1.34504851133660
