56
 energy: -5.671433716941 gnorm: 0.017826273741 xtb: 6.5.0 (97a52f5)
C           -1.42143935640799        0.56481945716322        0.51204172044493
C           -1.63364841928607       -0.68702797167225        1.25843884068861
C           -0.68918104710437       -0.80111264943869        2.39305829493653
C           -1.55872413476873       -1.86002809586254        0.33309014342084
C           -0.30331674238078       -2.28437490125367       -0.09921186022825
N            0.10712066104586       -3.52367867096571       -0.37838394082112
C           -0.60838339870160       -4.57963346775969       -0.39952598270910
C           -0.26055781471751       -5.88463493370612       -0.67878818860919
C            0.93898115627084       -6.41037016982135       -0.73654575656126
C            0.95938878647933       -7.67025913977080       -1.09738050988136
C           -0.11660078705650       -8.39108686983247       -1.47097359532827
C           -0.07275860244014       -9.64179850901594       -1.87545731320674
C           -1.08601255365677      -10.35192487171775       -2.33077101660988
C           -2.33502051958558       -9.95304740428482       -2.49732635302630
C           -3.33704256851606      -10.67803257677980       -2.96693341947208
C           -4.54605923856627      -10.28276039130212       -3.13355940767996
C           -7.53739336874208       -7.77564320002293       -2.88062471153017
C           -6.46437373901116       -7.29924837712735       -2.47564784232959
C           -6.08629699966870       -5.99157285220935       -2.61733431127215
C           -4.96104952648001       -5.39421300666407       -2.24511577686050
C           -3.92145146979556       -5.79662770824123       -1.53518544884400
C           -3.68805039625586       -6.88178729189266       -0.81237252994438
C           -4.46993561931922       -7.85337934709050       -0.51669175560873
C            3.86798211894724       -3.00235121922434       -2.08774049152269
C            1.98693459397258        0.28306436606002       -1.21275835596693
C            2.97856218476323        0.62913866150337       -0.42953096204425
C            2.91621711716148        1.41543415613566        0.56172417129327
N           -0.19777420301476        5.59427012495614        0.98159824490907
H           -7.57118111113834        0.01450976802871       -1.14919371262444
H           -2.42925138645433        0.68120856690495       -3.97623159804818
H           -3.69895218062551        6.21758257448697       -1.99305503832099
H           -2.69639823367044       -0.66448502216614        1.69732270483879
H           -1.58908575563239        1.42011466285078        1.09765586710286
H           -1.80785564131272       -0.34286597219168        4.47323203957292
H           -2.13000297622897       -2.26036443193429       -4.81885905051290
H           -5.89936755501698       -2.59325656678076        1.98592695560171
H           -0.70804654285265       -1.75112688767911        2.82826484725602
H           -2.06399203519111       -5.43934387627318        1.37337786878302
H            3.48599760989154       -6.23071552570882        2.18674939132149
H            2.34268043632473       -8.28771238977179       -1.20973971647663
H            2.65309188569789      -12.44859617687326       -1.81024770583499
H           -1.03964357075074      -12.71215712328725       -3.15171569250371
H           -5.13737316516443      -13.94936675999759       -4.69525089860901
H           -7.69312205337260       -9.32866766471081       -3.41141526968295
H           -9.01971145252041       -7.05014530588397       -3.07615147331710
H           -7.60507812825706       -4.35336166103049       -1.51654727109969
H           -3.44690043625589       -2.14464237423800       -1.13016206069209
H            1.33788365337770       -1.37525645998748       -2.78353549332403
H            4.08053992395557       -2.39174691601368        1.43094690920716
H            6.59060596942562        0.33158764403364       -1.27968688839621
H            3.64986012896933        3.55707760331811       -0.41616162809254
H            3.03681617808778        1.40732773515339       -4.03142145554146
H            5.20164293945184        0.33129535366731        3.19804097621159
H            0.93901548166707        0.17669022581662        3.89231447908502
H            2.30060150390453        3.20057541430029        3.33287201105538
H           -0.88509960125153        2.34590842454201       -2.38042098242624
