49
 energy: -9.711032266210 gnorm: 0.000595178601 xtb: 6.5.0 (97a52f5)
C            1.38945340638372        0.28386128054447        1.05662604530255
C            2.56101686595246        0.13434573427494        0.07189435093969
C            3.88641581634637        0.37662163994506        0.81191674900863
C            2.40730104415349        1.16324630530157       -1.08600834910857
C            3.39980694387451        0.95118510432398       -2.19816276847972
O            3.77848602838267        1.90403514689899       -2.85205758920735
C            3.88113425162083       -0.39374470913135       -2.45972098949646
C            3.45969941179308       -1.46492810930467       -1.72382274363556
C            2.55075859356600       -1.29784067548682       -0.54363306763768
O            3.83197098935821       -2.75831721366644       -2.01784594624660
C            4.43134306433043       -3.01185011855521       -3.25949513436037
C            4.47265504303047       -4.34760997479139       -3.71425221359941
C            5.00190805187921       -4.66486277851415       -4.92188948214658
C            5.55309311729398       -3.66201841031646       -5.75083885463173
C            6.10107831566060       -3.96865381618934       -7.00859313916387
C            6.66330905526454       -2.99279487277902       -7.80660010891693
O            7.19774856593073       -3.27499964388720       -9.05175433021971
C            6.69930290147910       -1.66431057509942       -7.32321495269252
C            6.17773392834065       -1.34185089917176       -6.11259061476204
C            5.55927050306539       -2.31927434465638       -5.29488574687662
C            4.96191883748097       -2.00240292360521       -4.04678345955014
C            4.92535529424066       -0.58640712916144       -3.52696653344586
C            6.29461463854328       -0.16658395259689       -3.03803249730999
C            6.80864487202711       -0.77210558298564       -1.90732908855765
C            8.05868348273242       -0.42922886475424       -1.45988395033452
C            8.75365330853297        0.51168667850888       -2.17574549683620
C            8.16800625387839        1.05391925724690       -3.29529064772558
N            6.96614949073900        0.73891350658527       -3.74658095761629
H            1.37304301783509        1.28201085683595        1.49208079063881
H            1.47079375192025       -0.43689207529307        1.86906230784494
H            0.43546102762758        0.12064327062801        0.55713266095364
H            3.91431985687773        1.37628414049196        1.24315298631043
H            4.73224948881644        0.28118561503038        0.13285598748907
H            4.01993391167424       -0.34251919533988        1.61877922836056
H            2.52037058547775        2.17830634573482       -0.69664026290708
H            1.39704280389642        1.10223085033540       -1.49891047093297
H            2.83179673115595       -2.02673735037515        0.22164379113725
H            1.53250766443585       -1.55836521161646       -0.84592404096077
H            4.05492295813168       -5.10964957795870       -3.08051379025485
H            5.01217903455509       -5.68645165830452       -5.26010154878363
H            6.08044474956778       -4.98500826888703       -7.35387528481562
H            7.10473900229740       -4.22663737944562       -9.25057675827294
H            7.16621583280297       -0.91532106676967       -7.93780067316623
H            6.27533558822522       -0.33718691579609       -5.74378064979701
H            4.65358204720120        0.08003794532767       -4.35824470108562
H            6.22286541950984       -1.51566396039940       -1.39514476219893
H            8.48019370539387       -0.88556612502573       -0.57920254099985
H            9.74049552441964        0.81656256609516       -1.86821587191811
H            8.71165522229793        1.79204713575067       -3.86587487933143
