49
 energy: -9.347448746567 gnorm: 0.000986769056 xtb: 6.5.0 (97a52f5)
C            1.25454790086503        0.49100290276886        0.89325458725103
C            2.44675623984328        0.16485234331099       -0.02119205679017
C            3.75914430298571        0.41026367542489        0.74059913182228
C            2.39631948448115        1.06467461283335       -1.29091231425235
C            3.40333680407245        0.66818525113990       -2.33827891686472
O            3.84074000124752        1.51055632251061       -3.09874486930671
C            3.83096245013350       -0.71808967377975       -2.41136456775509
C            3.32518213358610       -1.67277642984448       -1.57555985890372
C            2.36826375120243       -1.32351967010194       -0.47677114271727
O            3.65660723230185       -3.00472054218826       -1.69098092191534
C            4.29561957443735       -3.42969061987089       -2.86457744393359
C            4.31426393151497       -4.80876230831353       -3.14453293774981
C            4.87830181836244       -5.28452255995657       -4.28041113769329
C            5.48074723598048       -4.42541482243325       -5.23445482534991
C            6.01220556064747       -5.03971190428086       -6.39502010118946
C            6.45029807506984       -4.48103274619846       -7.52769881887470
C            6.48106909155670       -3.23373984424157       -7.96859449869124
O            6.75762421385079        5.10373530894539      -11.05953084619118
C            6.23469343918868       -2.16249626354324       -5.71914681768243
C            5.52873888572945       -3.03120106040408       -4.93182484366214
C            4.89673603183852       -2.55016059949890       -3.74926508730602
C            4.92182024647768       -1.08450875256060       -3.38139471585505
C            6.28155939085596       -0.69568790735794       -2.83954880602336
C            6.68280127466822       -1.21340773796179       -1.62272790448141
C            7.91635569412666       -0.89067754523460       -1.11802927725513
C            8.71036774026340       -0.05811830795170       -1.86443184655160
C            8.23433650775769        0.40132979317570       -3.06961956006790
N            7.05058461339799        0.10328792542669       -3.57672318299801
H            1.28479762994046        1.53125207602467        1.21441998969502
H            1.26477202493144       -0.13669418724223        1.78323527883908
H            0.30952244083820        0.32668193430974        0.37735562299590
H            3.83507702892836        1.44821388867142        1.06132972613924
H            4.61975872937930        0.19092418257448        0.11054178847992
H            3.82067945671374       -0.22162348548587        1.62544847549826
H            2.56531305717838        2.10790270646076       -1.01207087574477
H            1.39615749598887        1.02132516942834       -1.72972452778460
H            2.55861500311940       -1.97885984064230        0.37773059014396
H            1.35173341685061       -1.55115320512095       -0.80981294188472
H            3.85241010081429       -5.47509153594228       -2.43765991539914
H            4.86136525056537       -6.34288446339849       -4.47705651957871
H            6.03042555394309       -6.11721478706619       -6.38135843930005
H            6.87060057207029       -3.21267571153413       -8.81951137942311
H            7.48187187493776        4.94432577912843      -11.68233772732759
H            6.39140500234913       -1.14949076117680       -5.49845278642642
H            4.74569296994252       -0.49438599860436       -4.29204489794551
H            6.02174473375699       -1.87241485623028       -1.08716134755244
H            8.25024016829054       -1.27927602259657       -0.16989088399855
H            9.68876238146478        0.22757908238708       -1.51448878216202
H            8.85570148217068        1.05445119620864       -3.66399686769350
