29
 energy: -5.076098642122 gnorm: 0.000658625283 xtb: 6.5.0 (97a52f5)
C            0.99786097286917        0.23663638868441        0.26458625334537
C            2.48737782564882        0.06515930549366       -0.07448691659628
C            2.67774721351635       -0.11556131155375       -1.58802899950490
C            3.07429780218683       -1.15915752465478        0.69003881252244
C            4.58036322948800       -1.18335105545190        0.70012258576152
O            5.15309513081090       -2.24065343222957        0.58795046182162
C            5.28560210587647        0.08834317912693        0.84787465127788
C            6.65067244905568        0.13234560170122        1.15320916545291
F            7.31305840481452       -1.01639204877819        1.36983480382935
C            7.29473132237021        1.35495864189903        1.28512212383238
C            8.77196357723064        1.46008506850093        1.61120629543909
F            9.35762043877751        2.25427404197416        0.70271880663819
F            8.90269445705590        1.99249004867273        2.83455045411455
F            9.35270692586265        0.25338397650935        1.58158893891850
C            6.57701785901288        2.54090859798862        1.14233078743683
F            7.17369343850508        3.73313858866539        1.29853788779128
C            5.22949508098927        2.50868810306368        0.84733886047298
F            4.54787378711657        3.65793362722132        0.70058427198902
C            4.57122563367864        1.28710632427324        0.69059521768479
N            3.23427100080757        1.28282317183028        0.35327494473691
H            0.43018596074055       -0.65897865161342        0.01028792575382
H            0.56620946780161        1.07434417257336       -0.28320941117173
H            0.86648040614721        0.43177369053498        1.32912569713766
H            2.14064557829711       -0.99083952607200       -1.95440698304815
H            3.73421257285955       -0.23968764684427       -1.82712518425140
H            2.31554261267345        0.75791540699999       -2.13030639863597
H            2.71433248538504       -2.08986665389344        0.23960798481680
H            2.71925996923705       -1.15561303138267        1.72509840149028
H            2.75800229118497        2.16555294676033        0.18091856094425
