26
 energy: -4.643037305464 gnorm: 0.000587974248 xtb: 6.5.0 (97a52f5)
C            1.04394909155794        0.20510092131395        0.18079093516730
C            2.54739209133212        0.06258463948699       -0.09943594899362
C            2.79797977948550       -0.10609877603715       -1.60397931518349
C            3.12446690469301       -1.15628712453489        0.67817304018995
C            4.62954873592413       -1.16159597672159        0.74450544738629
O            5.21800711999937       -2.21516719064765        0.68249301659641
C            5.31437217647839        0.12158170130689        0.88591493821567
C            6.67433467903084        0.19030117232964        1.20047540108872
F            7.40923849057204       -0.91665723641739        1.38949728369264
C            7.29156658994104        1.42074798852563        1.34797564562118
F            8.59970593063523        1.47864970356711        1.64720570546566
C            6.56843783228554        2.59931297137141        1.18900077666055
F            7.17883906761736        3.78343030631949        1.33879159074429
C            5.22633984455599        2.54856646924919        0.87432937369363
F            4.53293972036301        3.68803406674839        0.70382412686179
C            4.58803862698618        1.31383231946207        0.71569137506972
N            3.25419881748627        1.28926693887279        0.36404686206423
H            0.50308442529609       -0.69604708854207       -0.10757217915607
H            0.62216177486426        1.04249242365583       -0.37382349400173
H            0.86662521613782        0.38418802394758        1.24090295999207
H            2.29585844216445       -0.99184905320552       -1.99215694899339
H            3.86444088373246       -0.20473541881178       -1.80417897759209
H            2.43525928267902        0.76045610160151       -2.15567871783600
H            2.79248268364069       -2.08776237461531        0.20997499974615
H            2.73155825334591       -1.16321718103719        1.69875754210308
H            2.77465353919517        2.16292167281172        0.16125456139692
