40
 energy: -8.821067394858 gnorm: 0.000505966785 xtb: 6.5.0 (97a52f5)
C            1.02773221689066       -0.05565608868130       -0.19405507227551
C           -0.19425544801000       -0.04460290820871       -0.15541122210710
C           -1.60485782568988       -0.02217564438733       -0.11384238729443
C           -2.33649369663831       -1.20554732965965       -0.09459445788152
C           -3.71490420909730       -1.18127570939084       -0.05377305504501
C           -4.38524191328349        0.02499245496395       -0.03167132639807
C           -3.67443034876235        1.20788128490822       -0.05005655862588
C           -2.29603692004826        1.18527216049944       -0.09077651602036
C            2.43556980748495       -0.05181904912483       -0.23459595138824
C            3.05340413346480       -0.28735981134486       -1.47640484779472
C            3.59437611233713       -0.49543619152778       -2.55255900649356
C            4.24914152565972       -0.72864205677682       -3.78057633968837
C            4.81483927383584        0.32307543817848       -4.49456484118701
C            5.46149425070605        0.09455565268999       -5.69117099253147
C            5.55420459143880       -1.18753587789334       -6.19379295782692
C            4.99874098790910       -2.24184588192802       -5.49755011811796
C            4.35179045795436       -2.01499640067309       -4.30081583413130
C            3.11060278338496        0.15111477651856        0.91832120367730
C            4.55859985029964        0.21590507767404        1.10929927445169
C            5.44268345057528        0.56288118039709        0.08664615346647
C            6.79864754971264        0.64211074537315        0.31584314383268
C            7.30519850474015        0.37886842223441        1.57246175773557
C            6.44932295289149        0.03957101167998        2.60089410581643
C            5.09250160709395       -0.03719780085204        2.37452833647053
H           -1.80960629907899       -2.14445392610756       -0.11184636936911
H           -4.26900786072614       -2.10566400956357       -0.03903949979796
H           -5.46247928112562        0.04327153850125        0.00029436183889
H           -4.19677104361120        2.15053260842659       -0.03237290484984
H           -1.73760013217314        2.10584457234873       -0.10486354194983
H            4.74154478728848        1.32159589422047       -4.09825878128972
H            5.89556439485480        0.91836902315446       -6.23399643354670
H            6.06050442674643       -1.36559973168809       -7.12855420892772
H            5.07176761116111       -3.24360937814588       -5.88860218740502
H            3.91923251069351       -2.83485431027745       -3.75294112621283
H            2.51794492896223        0.27060107942820        1.80967487237797
H            5.05736616420602        0.78471470796443       -0.89148803433665
H            7.46511004796051        0.91267954604319       -0.48700661122498
H            8.36641588153871        0.44165574010499        1.75053638212770
H            6.84273426371749       -0.16409068465753        3.58354943665349
H            4.42706990456652       -0.29999012484221        3.17917215413050
