26
 energy: -2.417251049151 gnorm: 0.001209069007 xtb: 6.5.0 (97a52f5)
C            0.56894342081766        0.14134411129350        1.61711197264657
C            1.38300564200199       -0.45119159311696        0.59950448077350
C            0.68422818128481       -1.01653088157341       -0.51434673124546
C            2.52936944698953       -1.20273121541253        1.06549896771302
C            3.78183301292139       -0.90158727675652        0.41183885255195
O            3.82673374504631       -0.66978967110505       -0.77573691752860
C            4.96183410316803       -0.88162929378142        1.20905116940547
C            6.17355086065732       -0.63881161582740        0.76849446035226
C            7.20704195328085       -0.58842792902915        1.59077101140166
F           16.86342678260933        3.55270964143519        4.43225596741399
C            7.38045851816870        2.32206332221525       -1.11001918219646
F            5.33015705984702        3.23855083572354        0.52874409011003
C            4.18996646034533        3.89089200194757        0.50615491248277
C            5.77141546443096        2.65961920912994        1.63264005703084
N            5.12874886073245        2.65874212900494        2.78759813968760
H           -3.34273251000994       -3.41863813683510       -1.30766431645399
H           -0.30162191414711        3.35079582051391       -3.34177588360482
H            1.11446366601526        0.75559622730192        2.27477467247511
H            0.63705999358936       -4.65678921653314       -7.02242084714891
H            9.30890959630987       -0.44661862774468       -4.19995714015107
H            0.04366846580885       -0.32675128427149       -0.98592332043785
H            4.12736821984788       -0.42070418427508       -2.65237015820570
H            2.03886743024556       -3.67705323547094        8.21811375690232
H            8.73058871300282       -0.28726038660384        2.18647243488689
H            3.79813249910496        5.36317975823027        1.25728813894057
H            2.98966232628886        3.67326149100277       -0.58776859020257
