58
 energy: -7.957594008860 gnorm: 0.000595555628 xtb: 6.5.0 (97a52f5)
C            0.64982397829313       -0.31158970189173       -0.12418873352286
C            2.15270142938838       -0.41963003965762       -0.04918005906131
C            2.59008940588385       -0.33170051369585        1.39063583085525
C            2.61943782050363       -1.76143291445854       -0.62719853162559
C            3.57200229512126       -1.64510586176155       -1.78499273396661
N            3.96165383611134       -2.91933314096534       -2.32888996300957
C            3.05109378188236       -3.69204462646650       -3.09280633745152
C            3.61043900937842       -5.02313741995233       -3.49372225820567
C            3.15885088552426       -6.16738034957677       -2.91503110397739
C            3.62545202890841       -7.36971954052000       -3.20439018959760
C            4.62147623445229       -7.55151809903765       -4.12012453350084
C            5.16744770692139       -8.79693373046574       -4.47598356093075
C            6.11839643782294       -8.92220800018604       -5.34891390105461
C            6.68338945213686       -7.82089571881252       -6.01355714064416
C            7.68668793137979       -7.88885453377018       -6.93955108985353
C            8.16267782490552       -6.79784261501084       -7.51869326215051
C            7.70889997793906       -5.58413288379076       -7.24811135313884
C            6.70605213008278       -5.38783743844037       -6.34011108622006
C            6.16202128800379       -4.14133345165451       -5.98965772387478
C            5.20988350840444       -4.01682080221289       -5.11830269781619
C            4.63979549225004       -5.11103843590387       -4.44815657465743
C            5.13936401370421       -6.39812150787156       -4.75230643720554
C            6.17937218704069       -6.53613697090071       -5.70555093430326
C            2.99779337940371       -0.68720908818109       -2.84319561714378
C            2.73839059865956        0.74039361893698       -2.25400926150163
C            1.39794805959190        1.24962360726026       -2.70566767140521
C            3.81683349908172        1.68268578440252       -2.72337762867236
N            2.77773566822680        0.67392687157897       -0.79344170305207
O            5.58617381174977        0.75936531949150        0.48238747946982
H            0.16070651091150       -1.05428068448623        0.47208532453148
H            0.29236117365245       -0.37190130046584       -1.13052954852873
H           -2.09030903690891        3.74591323348987        0.01815434968994
H            2.18547710281290       -1.12286513543674        1.98810229389024
H            2.34341387652927        0.61465922413593        1.82534168320235
H            7.17339084951127       -0.59149147985935        2.91456404090920
H            1.80912151366122       -2.43907715053620       -0.82000126601651
H            4.49571125312962       -1.19597616058291       -1.38930249039508
H           -3.33907441959695       -2.69290022685293       -1.04934883969010
H            2.13243910810238       -3.83802627573803       -2.51709584372721
H            2.77458992512252       -3.13086943204538       -3.99052988038505
H           -1.74972064812476       -1.47735220024388       -4.72012891754368
H           -1.53100489841036       -6.08319680742589        1.48179704029434
H            0.49607722554429       -9.74881767058739       -0.51068881356581
H            0.67710795487536      -13.93676844293359       -1.95460411429873
H            6.34018512129211      -13.63832984827047       -5.22010132328421
H            9.49972131031129      -14.58025537109701       -8.01672150826103
H           13.69911644460017       -9.61835158030009      -11.17321232707937
H           11.05244767567175       -2.85182043060282       -9.85233955046874
H            9.97759217207474        1.27682212882180       -8.41519560529975
H            3.66545023809306       -0.63152038122843       -3.70824437908420
H            2.05316319708022       -1.09198822561395       -3.21585264096770
H            7.85571803435279       -1.08312905084260       -1.25255802316090
H            1.33139684546969        1.33234200443799       -3.77107291147459
H            1.16094259236339        2.19111292746754       -2.25557117573970
H           -3.95535698230325        1.39417374466171       -2.82832485679899
H            3.84669116576284        1.77342838000407       -3.78995780072414
H            4.78193357501859        1.39924656313014       -2.35796124982684
H            2.20324744923466        6.24389182715758       -2.51267287766904
