42
 energy: -8.476036020011 gnorm: 0.000621640708 xtb: 6.5.0 (97a52f5)
C            0.79795923460404        0.50275571648911        0.05144492985083
C            2.32326375851897        0.42192891044193        0.20727911882912
C            2.69480730003010        0.49954749916821        1.69361027852086
C            2.98747555664160        1.57270699337815       -0.59060146257663
C            4.51371966230743        1.46924155023867       -0.56691667960751
C            5.00371010519185        0.06244278680988       -0.69606823986462
C            4.12411650277482       -0.99762759510392       -0.58807290586850
C            4.61292788281690       -2.34647480181718       -0.77139188159038
C            3.74052783150569       -3.43355327512201       -0.68059566918262
C            4.19297625109637       -4.71601721200375       -0.85149571507103
C            5.53608698928902       -4.94928558923426       -1.11852351598898
C            6.41001490817308       -3.89799221001126       -1.21009474941549
C            5.97210221174890       -2.58037238040259       -1.03909881384375
C            6.89683449485089       -1.47148679627536       -1.13633493181050
N            8.16872444982328       -1.73184859282910       -1.39021489309831
C            8.96545988216901       -0.65298883716739       -1.47619217010118
C           10.33968366813381       -0.82891648554144       -1.75131041482098
C           11.18511929532592        0.23497607416672       -1.84810222614805
C           10.70206136804533        1.53491472281788       -1.67433191242447
C            9.38350314688001        1.74553406977960       -1.40811154421065
C            8.47360278429467        0.66821956960494       -1.30104879979737
N            7.18384742967993        0.92415633022669       -1.04239005330692
C            6.39696401538798       -0.14614284494573       -0.96195478886084
O            2.76506603884553       -0.86685725701411       -0.32208901570053
H            0.41157596598541        1.44525477792318        0.43680966226944
H            0.31801652123608       -0.31222762587245        0.59017773166494
H            0.51883219935504        0.41840196782604       -0.99725819363762
H            2.38160373024847        1.44779184393570        2.12810381121032
H            3.76960395936458        0.39757617060862        1.82972102246554
H            2.21512329647743       -0.30683328460346        2.24543404782220
H            2.65032217144201        2.53576729828107       -0.18995562229086
H            2.62858134074226        1.53081262584341       -1.62429891221549
H            4.90913316781103        1.89770829214631        0.36124896457388
H            4.95106743886098        2.06930704365586       -1.37467978517641
H            2.70181761429855       -3.24210400274850       -0.47346220645954
H            3.50742337753844       -5.54427623036079       -0.77927874991769
H            5.88990035373044       -5.95829666305958       -1.25246596368770
H            7.45137308678871       -4.07194762939033       -1.41602489704617
H           10.70677747870982       -1.83133072316730       -1.88447174222363
H           12.22989655766141        0.07702264342415       -2.05955559393067
H           11.37730878943878        2.37111233052279       -1.75231871305697
H            9.00627818217596        2.74407081938156       -1.27386880427511
