56
 energy: -11.229145278828 gnorm: 0.000558634961 xtb: 6.5.0 (97a52f5)
C            1.18722278567242       -0.84933894093723       -1.75176676888195
C            2.21689956885834        0.11889764316613       -1.16183540166465
C            1.69394707109532        1.55830770359947       -1.19323900793166
C            2.60996214811204       -0.29851388636213        0.28850233990168
C            4.07226135633458       -0.55076010224925        0.21241934370085
C            4.48095860741462       -0.33922230347636       -1.08714399435872
C            5.86069346447658       -0.51428836019648       -1.44232709724188
C            6.30410314153779       -0.31989099085818       -2.75197066214706
C            7.62542775790538       -0.49153635465815       -3.07093863901632
C            8.53757013481210       -0.86138990429556       -2.08828146137222
C            8.12130438800226       -1.05702491881070       -0.79788319784217
C            6.77788124082654       -0.89055528536274       -0.44090743315153
C            6.34041879343667       -1.10323129198674        0.92697437516145
N            7.24788081830074       -1.45175577421606        1.83515316481588
C            6.77946189106328       -1.63145467736682        3.06721108340343
C            5.40178927969633       -1.46682638827417        3.38772437945136
N            4.48685591563421       -1.11400682373881        2.48480705409559
C            4.96485595151424       -0.93300684715197        1.25370155532658
C            4.99569325894386       -1.69572750304681        4.73288123937843
C            5.87355392354288       -2.06512372671506        5.72965833023275
C            7.26895750150137       -2.22517048689144        5.43337029193645
C            8.18495904424717       -2.58832464993377        6.42262032513931
C            9.51216829238498       -2.74071787632979        6.11861160180804
C            9.95722866404863       -2.53491263219376        4.81707480017114
C            9.07367697202103       -2.17768184881665        3.83299227135918
C            7.71197377288345       -2.01214016766375        4.11275261949049
O            5.26817872383813       -2.25205151892655        6.96544598856004
C            3.83078513114757       -2.02439741066878        6.80932734906490
C            3.08276303753851       -3.32606441587747        7.11331517676277
C            3.38954172603731       -0.90629443264315        7.75815901655916
C            3.63363888614117       -1.60654760877760        5.31974006887255
O            3.45345151786463        0.04089722689669       -1.94070242693285
H            0.25997351504405       -0.83325542816053       -1.18068810593446
H            1.57737621513076       -1.86558966833238       -1.74835773711654
H            0.96160995303507       -0.58094450515521       -2.78227291555414
H            0.78351907188948        1.65862720138486       -0.60402407291805
H            1.47768689998094        1.86106431313811       -2.21618794363569
H            2.44154459247427        2.24157784943962       -0.79408942168323
H            2.07493119663132       -1.19900131577784        0.60450553037849
H            2.38707969802997        0.49467676088988        1.00828974609905
H            5.58836477609485       -0.03426114304325       -3.50344961674963
H            7.95968425167999       -0.33965207872661       -4.08407768524191
H            9.57573097326172       -0.99430117948530       -2.34490292836480
H            8.82431128149526       -1.34383703169686       -0.03580195558094
H            7.82803755906281       -2.74525391063761        7.42588677072631
H           10.21280595207582       -3.02065231564581        6.88802561904179
H           11.00197980298842       -2.65796088948346        4.58334622334141
H            9.41455372317223       -2.01811218522594        2.82523987959882
H            3.27266473305133       -3.64242774942230        8.13735430748345
H            3.42186367493514       -4.12043479063151        6.45066635569881
H            2.00854516445635       -3.20222968677444        6.98356353843362
H            3.57977016876173       -1.18954683194904        8.79185174260425
H            2.32671567281789       -0.69504100242653        7.64878702859641
H            3.94699771897095        0.00624072994615        7.55445538229405
H            3.24062032031944       -0.58868563579820        5.23860553946775
H            2.93985831781352       -2.27616495167160        4.80270843435117
