76
 energy: -17.274432427649 gnorm: 0.000606102921 xtb: 6.5.0 (97a52f5)
C            0.90493131867780        0.21381048688995       -0.41388686106126
C           -0.30983049813054        0.05021965375661       -0.44842507703015
C           -1.70636104586271       -0.12120875045055       -0.44735834411452
C           -2.26922645446896       -1.39420877030499       -0.45285001424724
C           -3.63813033506462       -1.55885698493581       -0.43745126105600
C           -4.46752138459160       -0.45567435832912       -0.41621035699626
C           -3.92532954352555        0.81369731105709       -0.41113832449282
C           -2.55677253450211        0.98071281166914       -0.42645545031114
C            2.29350409228877        0.35887159032677       -0.37078891363151
C            2.92508141167698       -0.45340897005757       -1.31548262234855
C            3.45475418924807       -1.20544873587575       -2.12632021783164
C            4.09187962304630       -2.07232235290096       -3.03309473612157
C            4.89084784489476       -1.57203794875330       -4.05735205859318
C            5.52164243264188       -2.42494918475047       -4.93830546476664
C            5.36597182493543       -3.79059139694810       -4.81086944017216
C            4.57789131591894       -4.30271870742321       -3.79999171254420
C            3.94603297497959       -3.45180018004780       -2.91810048662083
C            2.97029291445460        1.08690104669783        0.60439753134251
C            2.24474692106515        1.73415640559114        1.70925048849253
C            0.90561935579431        2.13391129651930        1.57944626848245
C            0.15398931617498        2.51648566936754        2.65990379656700
C            0.71828315498303        2.51142729017403        3.92170349764635
C            2.04758511862257        2.21091002804287        4.06992187777177
C            2.86824581099906        1.90265262701782        2.97359846630493
C            4.33386066537212        1.82714665873980        3.09505164586036
C            5.01133793483200        2.53082227435082        4.08753032770408
C            6.39977411404794        2.67557451579759        4.13700927582789
C            7.61263275828355        2.84814720810743        4.19106513248479
C            9.00647790402238        3.03751030977016        4.22286558795034
C            9.55080165708886        4.31795137002992        4.26234617838336
C           10.91712690426825        4.50167118560692        4.28534068703604
C           11.76229549392401        3.41047717467680        4.26924610514267
C           11.23859167194849        2.13390571115066        4.23037089226141
C            9.87255243622752        1.94777011154216        4.20714240501037
C            4.38560623749639        3.30936868112434        5.06374438253388
C            3.86071253663045        4.01306754818574        5.91988812553524
C            3.22233312394070        4.80793110635625        6.88949858069449
C            2.32401417775390        4.24235562099306        7.79003580645877
C            1.68949348675010        5.02121993890978        8.73438397959105
C            1.94069635748170        6.37714632322028        8.79484099834997
C            2.82878993592057        6.95342408494699        7.90904403851580
C            3.46456218427475        6.17654971637365        6.96374282179589
C            5.06147446312570        1.19124646060416        1.98426168128056
C            6.40223740685331        0.79464125486963        2.10796406706170
C            7.15060264670253        0.41457935368245        1.02414019918647
C            6.58230306603452        0.41890334745531       -0.23590904797243
C            5.25185230478905        0.71599946928511       -0.37928070755098
C            4.43582030854388        1.02076043961147        0.72138826339013
H           -1.61845313968197       -2.25195746614545       -0.46672538222872
H           -4.06086393232846       -2.55032622454802       -0.44011531578866
H           -5.53746125869826       -0.58533735493041       -0.40238859800335
H           -4.57228324942231        1.67560013793017       -0.39382115864765
H           -2.12983475195070        1.96915412573283       -0.41971235404943
H            5.01172724429636       -0.50625426472240       -4.15170306420067
H            6.13777757589061       -2.02470495195035       -5.72690674838555
H            5.85991525806302       -4.45656851894099       -5.49954757384722
H            4.45686584683143       -5.36896410044371       -3.69896275625865
H            3.33169192564066       -3.84668669572800       -2.12684378545202
H            0.45739176802974        2.15508045609388        0.60278511009589
H           -0.87904159634421        2.79600245319108        2.53098333842156
H            0.12049255923245        2.76583678565158        4.78183364793420
H            2.46577962750580        2.19504177131804        5.05960148569743
H            8.88771133068900        5.16625853607664        4.27345151032954
H           11.32536224358095        5.49876727786191        4.31492498128169
H           12.83026890390120        3.55513315954029        4.28649122672967
H           11.89792148748121        1.28135082741775        4.21782696194637
H            9.45980567309182        0.95379301091826        4.17566489715538
H            2.12914622369838        3.18466883611061        7.73774098287397
H            0.99569350009460        4.57059125570774        9.42525829081202
H            1.44317704160340        6.98548014135408        9.53249965918901
H            3.02485981957588        8.01223803563490        7.95544206814312
H            4.15639772680469        6.62191179435502        6.26917089585908
H            6.85441034220863        0.77040512306484        3.08257019865497
H            8.18418193412255        0.13534470391614        1.14929516638724
H            7.17763003922068        0.16564340752577       -1.09807555955614
H            4.82672225527129        0.72757799820410       -1.36656013565012
