37
 energy: -7.490689188242 gnorm: 0.000562063655 xtb: 6.5.0 (97a52f5)
C            1.09231722147912        0.50652830121079        0.25738490286009
C            2.49276950953661       -0.01746968316178       -0.07560076967600
C            3.47574067164934        1.14907533241113       -0.23804731203050
N            2.42666216470273       -0.73621417794529       -1.37837721425231
C            2.51442673588658       -2.10748232708717       -1.53195093133693
C            2.25513432884132       -2.69420749602855       -2.76864511439811
C            2.31482594067334       -4.06163841019732       -2.92569186860977
Cl           1.98256186013202       -4.76652008979149       -4.46551557519721
C            2.63555604143713       -4.86909544392379       -1.84031872107370
C            2.90195069425458       -4.30607110276665       -0.61648077656125
C            2.85936409292135       -2.92017687829340       -0.42951315341130
C            3.14661415707352       -2.29701047800328        0.85337204110885
N            3.61246826772921       -3.06848565264920        1.90348455477539
C            3.89001694392597       -2.57662383270038        3.17181275952289
C            4.36491509689152       -3.39747282192560        4.19870616683748
C            4.62256099661694       -2.87593857436722        5.44071077047111
C            4.41277472365874       -1.52603715670569        5.68904598152533
C            3.94704463475300       -0.70633532613310        4.69088679870712
C            3.68071326555031       -1.21559017958830        3.42346312424143
C            3.19277444972709       -0.35653893189598        2.34676428841693
O            2.98713864758435        0.83906073506844        2.56721634684290
C            2.96264898071298       -0.93965391492026        1.04727008584091
H            0.73138626999953        1.17578028914019       -0.52172349090556
H            1.09859230223926        1.05040888312870        1.20104255587637
H            0.39021188519901       -0.32094413146838        0.34552221624980
H            3.15921164502771        1.81446653506617       -1.03945026015683
H            4.46902341872144        0.77526492246065       -0.48031964822610
H            3.54594549429674        1.73069531233617        0.67952351297983
H            2.10203377630882       -0.15241042632886       -2.14461014760577
H            2.00025006468722       -2.07826066210374       -3.61128868851371
H            2.66760240098271       -5.93658297317141       -1.97720706520565
H            3.12943691669517       -4.95204850415781        0.21056586565462
H            3.79716239197359       -4.05305836227784        1.75149868761201
H            4.52445927337953       -4.44290724737858        4.00187414502680
H            4.98880458818068       -3.51480392834581        6.22731810732320
H            4.61678693779362       -1.12189316475605        6.66685717796598
H            3.78186320877753        0.34187156725029        4.87095064732146
