33
 energy: -6.648388086036 gnorm: 0.000804779366 xtb: 6.5.0 (97a52f5)
C            1.72823364165259        0.25540668787901        0.77444874728997
C            2.70547417133838       -0.23967272795965       -0.28653174781101
C            2.27253896282911       -1.57663214666649       -0.87917546305730
N            2.87769142390799        0.77593924006817       -1.37190971028423
C            4.19787995428895        1.23205974462073       -1.40116600667094
C            4.80521776878837        2.16750233312395       -2.19626030837873
C            6.19691178421059        2.40218317737372       -2.08412846303336
N            6.75172014231364        3.31487365717561       -2.88408431754120
C            8.07006131337750        3.47216219737068       -2.72904534162256
C            8.75149121709776        4.41490653962005       -3.53938801453040
C           10.09550818887042        4.61310757047249       -3.42865213217832
Br          10.90984377253633        5.88637023702345       -4.55493700547172
C           10.83916829180712        3.88102313255531       -2.49786619471722
Br          12.69932865045837        4.12486829958030       -2.31441885696818
C           10.22316526745631        2.96539596209081       -1.69788576598246
C            8.82854819635416        2.72510655340332       -1.78049678659959
N            8.27862090765646        1.81186453758664       -0.97446736059611
C            6.96323647645692        1.64707544943582       -1.12732570997902
C            6.30564635013854        0.69680107905652       -0.30946769260215
C            4.95579670334208        0.49967879753512       -0.43058759766098
N            4.08666623715288       -0.33007496041818        0.28223205763991
H            0.73080757508697        0.38550129464230        0.35656101359681
H            2.06069082125810        1.21246563162210        1.17319148378159
H            1.66597337418592       -0.45178348228838        1.60009929636039
H            1.29943922988489       -1.48803800215503       -1.35967519725606
H            2.20686016677716       -2.34276263772572       -0.10820934251629
H            2.99117055808309       -1.90483990159508       -1.62824673356080
H            2.08270036903144        1.39207200264030       -1.54054787976344
H            4.23329735650075        2.71105897456366       -2.92348768171273
H            8.18996807745203        4.98418778420836       -4.25935080113404
H           10.80522561663074        2.40780876414868       -0.98513144905791
H            6.86831750700414        0.14290033943871        0.41706275312853
H            4.36873992607045       -1.24946612842708        0.61951820888943
