33
 energy: -6.576215552810 gnorm: 0.000366607186 xtb: 6.5.0 (97a52f5)
C            1.86012812271066       -0.20994624095272        0.70560295699628
C            2.84693468502188       -0.16339023334542       -0.45614909723375
C            2.42119278619260       -1.07765018396601       -1.60023053180313
N            3.02337569178281        1.23723984564536       -0.95193518147876
C            4.34184592975277        1.65519143498028       -0.75635514486593
C            4.95027755619554        2.85265743793670       -1.02412874613085
C            6.33970378727455        3.01012023871866       -0.80319646668848
N            6.89688053862082        4.19007459210068       -1.08305683623421
C            8.21426114468995        4.25662130945396       -0.86184749950360
C            8.89788279566537        5.45841421341152       -1.13133287278525
C           10.25873728162467        5.64710616989398       -0.94980081443485
F           10.85516434004825        6.94250982527779       -1.26628365914085
C           11.03265067638778        4.51962641694227       -0.44328169520405
F           12.47370434944340        4.58428615683133       -0.21304413769128
C           10.34992870155128        3.34324631033711       -0.17770040284578
C            8.96591977802368        3.16170732840622       -0.36699192280064
N            8.41684202945341        1.97672398846702       -0.07877545687125
C            7.10266667177435        1.89896966676324       -0.29757306553966
C            6.44375706371157        0.67822446593701       -0.01464495087931
C            5.09566079831266        0.55841065525858       -0.22462428413263
N            4.22457857284610       -0.50670203159631        0.01716654040140
H            0.86491820132454        0.09398200001144        0.38475878947565
H            2.18302865649396        0.46037555013643        1.50002860053021
H            1.79629637468696       -1.21605967212212        1.11676022417712
H            1.45493161563107       -0.77215007829678       -1.99826353852270
H            2.34461423246952       -2.11122329954093       -1.26651744008427
H            3.14939625194636       -1.03171849838375       -2.40788367585915
H            2.22835547517387        1.86268684283909       -0.82500048056633
H            4.38126399150018        3.67025814024466       -1.42301334235068
H            8.31874251113754        6.28232513154836       -1.50494611313456
H           10.91022573091712        2.50686321497927        0.19684931560995
H            7.00401983469823       -0.14708417199537        0.38061982479244
H            4.50906382293586       -1.47826652592219       -0.10108889520070
