46
 energy: -8.824315669115 gnorm: 0.000761002837 xtb: 6.5.0 (97a52f5)
C            1.15461266575705       -0.30038074197024       -1.69466105113562
C            0.85569073517284       -0.43436509010235       -0.19492126418503
C            1.84633863223636       -1.41592019185205        0.44486728049604
O            1.00196971111809        0.86898115729861        0.39925355902248
B           -0.32394948297078        1.32431163005177        0.45369483603618
C           -0.63893522035357        2.81280827812541        0.83628367312331
C            0.15281137713600        3.81983272274406        0.33034194084708
C           -0.11183928588727        5.15213635612146        0.64320413970702
C            0.67996227376748        6.23138275961474        0.13584975224759
C            0.39825481836979        7.51424040844535        0.45076904607378
C           -0.70125457354506        7.84535399103722        1.30665309730681
C           -1.01237368606747        9.16213032613214        1.64767126827332
C           -2.07975918217270        9.44269381355172        2.47623513744322
C           -2.86376542955013        8.42833914328192        2.98723635985777
C           -2.59589036936353        7.09455980826309        2.67706469725852
C           -3.38719636195937        6.01471668743426        3.18620088542961
C           -3.10988859605177        4.73151170315931        2.86826051175690
C           -2.01265631756943        4.40091574598872        2.01033295974914
C           -1.70579126886999        3.08647129803649        1.66307354046754
C           -1.20711449341777        5.44618487982306        1.49329993217187
C           -1.50151423988356        6.79948407138076        1.82790576837847
O           -1.36574210439169        0.43303747218714        0.15773420923885
C           -0.67709017450113       -0.82792918744641        0.06595503108248
C           -0.85037751532235       -1.55452200379597        1.40725150605188
C           -1.28187955645979       -1.67301551103189       -1.06273783597070
H            2.16226364277336        0.08386207328643       -1.84330093896043
H            0.46265096316489        0.40049009073273       -2.15783520803302
H            1.08015136165626       -1.25895411543706       -2.20534631646621
H            2.86943713041144       -1.10834632957198        0.23538053039772
H            1.70719273297797       -2.42368014502047        0.05614189076150
H            1.73041577435709       -1.43867144799322        1.52639519038778
H            0.98051640912994        3.57054658239877       -0.30865358644702
H            1.51027233292791        6.00050314262901       -0.50869039856477
H            1.00248785712846        8.31384529455351        0.05836989090164
H           -0.40499379485166        9.96045383330706        1.25759600571172
H           -2.30310135845689       10.46684049017755        2.72697234376164
H           -3.69374340796641        8.65956525554130        3.63219800472099
H           -4.21600621519798        6.24526042591280        3.83297187538667
H           -3.71354884195831        3.93155276771281        3.26052498465495
H           -2.30612610031545        2.27618667958220        2.03530636880432
H           -0.43095339999151       -0.96070966931329        2.21728076397823
H           -0.36783399556433       -2.53047604838754        1.39862809270120
H           -1.90774265326193       -1.70234268880823        1.62001945640429
H           -1.27223706667860       -1.12991541352670       -2.00563618559703
H           -2.31979586292318       -1.91320101542391       -0.83806929916778
H           -0.73573786257544       -2.60687928882271       -1.19000244606190
