24
 energy: -5.205799581586 gnorm: 0.000495293148 xtb: 6.5.0 (97a52f5)
C            0.61056072601708       -0.01421454047173       -0.02081670193527
C           -0.61058993271513       -0.00588962995972       -0.01945393559481
C           -2.02337356699344        0.01075495692535       -0.01363685946327
C           -2.74779690073189       -1.17685167220521        0.01080531067219
C           -4.12701237281001       -1.16086141465761        0.01618856214792
C           -4.80517935451465        0.04099171070043       -0.00245690941286
C           -4.10140859515998        1.22791715381963       -0.02619437187431
C           -2.72217773777558        1.21375991575997       -0.03174563534872
C            2.02347019255664       -0.01085451432945       -0.02315848666958
C            2.74117504030896       -1.20257910450562       -0.04773772507278
C            4.12049070989448       -1.19462422850327       -0.04316685122661
C            4.80533843748676        0.00326187813118       -0.01476807673695
C            4.10827291128341        1.19412795012707        0.00812679924857
C            2.72907486982986        1.18798886001005        0.00384014196478
H           -2.21528901430955       -2.11263206068563        0.02577550064525
H           -4.67575842070031       -2.08835992549798        0.03507096731648
H           -5.88298734919741        0.05263566500725        0.00161331072023
H           -4.63014051087142        2.16705906142868       -0.04045551903444
H           -2.16977990087824        2.13787706849305       -0.05013833364213
H            2.20363726010096       -2.13536708212363       -0.06914034654894
H            4.66417142615780       -2.12512552801196       -0.06053117098258
H            5.88312006445136        0.00873325703626       -0.00943333292555
H            4.64200687041450        2.13026586055760        0.03037403021597
H            2.18170514816118        2.11508636295780        0.02289963352952
