42
 energy: -8.423023897010 gnorm: 0.000974853606 xtb: 6.5.0 (97a52f5)
C            1.16385328479241       -0.39294644258541       -0.14795860562054
C            2.68295861825175       -0.25731111160733        0.01920982188812
C            3.03023346250464       -0.10557510101045        1.50495816941118
O            3.30587178969286       -1.48070849453477       -0.48899258127052
C            4.68406082868814       -1.43421886596015       -0.66231653055701
C            5.40955869032612       -0.26372568411794       -0.77304153312610
C            6.83527897632387       -0.27909036703459       -0.91577670512300
N            7.46652522858150        0.88917917758570       -1.00029367043680
C            8.79806820318909        0.81165205875082       -1.12815943311921
C            9.55283550387221        2.00305514117930       -1.22534262658776
C           10.90808223153820        1.97442685730363       -1.35300191236883
C           11.58471970503675        0.75240991943829       -1.39061178383827
C           10.89225808125438       -0.41743054611906       -1.30114346007518
C            9.48659339469396       -0.43024146674648       -1.16800235461280
N            8.84553929132578       -1.60819707362686       -1.08543945203518
C            7.53114265991571       -1.52364739474333       -0.96260910079995
C            6.76758129534754       -2.74960436661790       -0.87619301651377
C            7.40133978696825       -3.99547763813379       -0.93058724053799
C            6.67994030467587       -5.15723633883160       -0.84666239238479
C            5.29894676188578       -5.11015747766761       -0.70452024843879
C            4.65572624484373       -3.90111812804903       -0.64832556439830
C            5.37092475014199       -2.70450123369778       -0.73233741543743
C            4.71568323544459        1.06332060360867       -0.77548324445922
C            3.19352052934417        0.96101037959534       -0.80014832872649
Br           2.39520642039899        2.60278460350070       -0.18769605541917
H            0.79814741449891       -1.26103202756426        0.39742858597598
H            0.90764366451799       -0.52465722293291       -1.19764502405787
H            0.64763030646145        0.49080751157502        0.22384090262208
H            2.67597489137387       -0.96800027211960        2.06669392235171
H            2.57453309129594        0.79012318393805        1.92392037655428
H            4.10717313888226       -0.03802643680041        1.64362237457522
H            9.02655459908708        2.94088043784567       -1.19575264405126
H           11.46377370669598        2.89483231188323       -1.42505960265766
H           12.65748213361996        0.73852196208780       -1.49130939123529
H           11.40814103487238       -1.36094458976983       -1.33028513401734
H            8.47133232827123       -4.02349466497033       -1.03894325405636
H            7.18326660524901       -6.10916108015299       -0.88993832052904
H            4.73453614165985       -6.02589873972534       -0.63965452050962
H            3.58596790730546       -3.85369543024768       -0.53810085817545
H            5.06925535354713        1.65049595157878       -1.63245983476289
H            5.02009331566798        1.63071352868398        0.11115619133502
H            2.84731508795522        0.84431456681241       -1.83375850477365
