43
 energy: -8.125600358479 gnorm: 0.000653492227 xtb: 6.5.0 (97a52f5)
C            0.66764720950139        1.58374129263133        0.07193713178318
C            2.03189588906047        1.33533072275392       -0.57958815162274
C            1.88740954344275        0.36330230843336       -1.75627493654955
C            3.16845521307796        0.90050757691436        0.44850432214167
C            3.28659052225263        2.12840449515286        1.41204310190441
C            3.06661948215962        3.34388820134370        0.46051665826480
C            2.84695714773166        2.67163620870037       -0.94543524075890
C            2.23127623550082        3.56658860180934       -2.01166730077346
C            4.21228614044548        2.05784507053003       -1.31369495538261
N            5.04901189262850        2.44107390657870       -2.23306949155033
C            6.14880705300254        1.64899996743436       -2.26945471114616
C            7.15661098394675        1.94500730315572       -3.20854943064974
C            8.30543611966594        1.19367993014141       -3.32282732756327
C            9.34079736517220        1.51863291602724       -4.29963879432529
C            9.38259741158373        2.61511697857863       -5.11308801039074
C           10.52102323604966        2.65659703813487       -5.96406772307571
C           11.34991072426058        1.60060663104896       -5.80632092383474
S           10.74789620715964        0.52415791839085       -4.59807552671697
C            8.46465114696780        0.08738434181081       -2.46530233357358
C            7.51867399003397       -0.23118092813959       -1.54148423295167
C            6.33488729358693        0.52863786418644       -1.40222708490277
N            5.43649441839791        0.16503910081602       -0.45790664287641
C            4.40162281552397        0.95567158522310       -0.44997742648295
H            0.25189909157609        0.65245634854418        0.45518613522453
H           -0.03633302885823        1.99137302544691       -0.65260467890409
H            0.72978973194474        2.28379782046422        0.90216875906723
H            1.51047611155321       -0.59993400605555       -1.41443580059986
H            2.84139314206136        0.19051832956563       -2.25191569011233
H            1.19157734589837        0.75288075097053       -2.49819907103153
H            2.99923508896073       -0.07466316998851        0.92611442648856
H            4.27639516936373        2.15376128278370        1.87979194345765
H            2.54632986942238        2.08437218992268        2.21792507188756
H            3.93682743225581        4.00668808798802        0.42970043829424
H            2.20318698332202        3.95337603789819        0.74328984329762
H            1.25216527527376        3.92812090845219       -1.70006339079414
H            2.11279953571165        3.02579557751388       -2.94937045415452
H            2.86833478942860        4.42979179189976       -2.19964114082865
H            7.00447863073912        2.78863671405575       -3.85396685333543
H            8.62858672835446        3.38632801592867       -5.11105458695504
H           10.70243720738897        3.45523589325840       -6.66894884824144
H           12.26237826845088        1.43460241874973       -6.34747054585079
H            9.35784250322073       -0.50563770534628       -2.55267883872055
H            7.65684208277406       -1.07714934371266       -0.89149768716340
