54
 energy: -10.295498562167 gnorm: 0.000732006981 xtb: 6.5.0 (97a52f5)
C            2.62494525752254        1.16052129344506       -0.12114112429027
C            3.02245660890042       -0.00595280147414        0.79230781443155
C            1.83921866359047       -0.96711770221718        0.94879056400494
C            4.49928431491442       -0.44635501932879        0.69149894520115
C            4.02926189127603        0.34820996785274        1.91016403360003
C            4.43323047384824       -0.45218150714537        3.20992706322472
C            4.08863244454219        0.35255972507313        4.45728540306741
C            2.82867477793543        0.90896627154571        4.60813955906593
C            2.50060427257630        1.60696299757984        5.75232501762754
C            3.42807041490001        1.75111056872235        6.76372146494679
C            4.68327604572611        1.19510045912108        6.62849807837851
C            5.00776600886696        0.49961427250769        5.48194210872339
N            5.84522469978770       -0.65524359947252        3.07758711992373
N            6.22296947657436       -1.30007586656442        2.09263930024237
C            5.20320193962460       -1.76516069359307        1.20083388702872
C            5.78487597611698       -2.54348964542999        0.02692904210391
C            7.07946980611966       -3.03194157718582        0.07178148979896
C            7.59346397350158       -3.76989561531122       -0.97445726415264
C            6.81219760133776       -4.03124292191796       -2.08104063316243
C            5.51828675812791       -3.55537650764239       -2.13596752245365
C            5.00754926706676       -2.81927331114034       -1.08646812358637
C            4.23123573268244       -2.68025168664083        2.01520537845978
C            4.82972402034293       -3.98866759567991        2.68128462998648
C            6.06161320233903       -3.62837378757739        3.49691283734073
C            5.65343806727548       -2.93394373458620        4.55877183039442
C            4.13991855772604       -2.81474589652044        4.47601395365590
C            3.80120580521984       -4.22235915711986        3.85263020344943
C            3.74740887311869       -1.85507236634067        3.27706324511482
H            2.32595596751458        0.79837683261655       -1.10452319479440
H            3.45222392842093        1.85653884225814       -0.25992106720781
H            1.78987631462501        1.71719640058763        0.30424842242490
H            2.01869459591548       -1.80850355544228        1.60230950339347
H            1.55391173214161       -1.37213505370477       -0.02214635525399
H            0.97527338892713       -0.43548604241416        1.34776963227501
H            5.11647716712868        0.08812595105062       -0.03378570078061
H            4.33954903409288        1.39382186943410        1.96637601714475
H            2.10513864162924        0.79027901170895        3.81971061814819
H            1.51819792751313        2.03792908928033        5.85663289163248
H            3.17180638628788        2.29528080571031        7.65821007050369
H            5.40959141213196        1.30232594932270        7.41759319687305
H            5.98334613468658        0.06095828414729        5.36940642786694
H            7.68105123710165       -2.82597542053943        0.93930592082233
H            8.60361049910452       -4.14276935243222       -0.92621213948930
H            7.21131269630485       -4.60735586919939       -2.89999435652654
H            4.90471242176307       -3.76079567229613       -2.99806778847155
H            3.99577920752906       -2.45303912888853       -1.12359905550747
H            3.40871987950014       -2.98773869316852        1.35994090729891
H            4.96594208442551       -4.84419453199630        1.99958434365401
H            7.08289835186163       -3.86199088583706        3.24807640870775
H            6.28642137309029       -2.50995825880657        5.31974243486450
H            3.64435284918579       -2.59595964194601        5.43613232250508
H            2.76468841349110       -4.30871970306806        3.51064542969686
H            4.06704111432158       -5.06164690290253        4.50365641348031
H            2.66166230974365       -1.71202888643511        3.30878039461263
