77
 energy: -16.829392769005 gnorm: 0.000399706441 xtb: 6.5.0 (97a52f5)
C           -0.03605110364243       -2.36150563662658       -1.32558811349302
C            0.00150397875134       -1.51242916572841       -0.04741012362361
C            0.03420676818338       -2.40175705554856        1.20319663505386
C           -1.19028095240841       -0.55070953096797        0.00052494120479
C           -2.54056937150271       -0.81566275275410        0.00733363381250
C           -3.45578219663966        0.24238999568340        0.01815824114629
C           -4.91322641899919       -0.03490604548746        0.00988641781503
C           -5.48065619095222       -0.77043241049425        1.05366183787847
C           -6.82343194393316       -1.05645477442651        1.09065530296865
C           -7.67583531005377       -0.62632994018760        0.07010010165168
C           -9.07587404655837       -0.91296132380362        0.07838298331843
C           -9.88281437640898       -0.50062916424600       -0.92518357170306
C           -9.36477025403165        0.23709952818610       -2.03562700498881
C          -10.17476059446224        0.66680318283370       -3.08862489949623
C           -9.64112747484093        1.37209864469806       -4.14771858052723
C           -8.29434380809658        1.66803927170058       -4.19025725466571
C           -7.44119125797942        1.26160025927930       -3.16215047046947
C           -6.03985584992269        1.54197322262625       -3.17517292254554
C           -5.23552571780031        1.13394367009357       -2.16790501756162
C           -5.74557256088438        0.41094654222880       -1.04563527117004
C           -7.12981985643305        0.10949797493832       -1.00938842989963
C           -7.98097807190412        0.53914238477710       -2.07055351551968
C           -2.97250266999342        1.55879073311077        0.03768909728769
C           -1.62261315443575        1.82845734636013        0.03606372695561
C           -0.72440943916585        0.76808886032359        0.01459373795331
C            0.74045032006729        0.76444187228487       -0.01677810475117
C            1.64450261785690        1.81990675148516       -0.01531095028326
C            2.99223109127194        1.54337554754804       -0.06118962149574
C            3.46819586981495        0.22491058823861       -0.10849066020342
C            4.92210468614466       -0.05892529329359       -0.17679619184491
C            5.42629459439029       -0.79743242998855       -1.25066422538497
C            6.76505181332692       -1.07862198993221       -1.37124064210700
C            7.67851157996065       -0.63822582561117       -0.40985102695305
C            9.07716814130232       -0.91431468917365       -0.50898763306587
C            9.94526788956386       -0.48915550396960        0.43641450661301
C            9.49549244872693        0.25136583755152        1.57434607252155
C           10.37016238595599        0.69568655998713        2.56784217566524
C            9.90206413356261        1.40339594720230        3.65589449762904
C            8.55833769226522        1.68697678465185        3.78698138732605
C            7.64208309113247        1.26572378280390        2.82100681712296
C            6.24207478487007        1.53241583572128        2.92677643937620
C            5.37633742203965        1.11349013931183        1.97648805086486
C            5.81708742604520        0.39221358522179        0.82404424658890
C            7.19830573635771        0.09918824908739        0.69947850889572
C            8.11432232780194        0.54141024241074        1.69980406312630
C            2.54667078239315       -0.82772258436329       -0.11527811313123
C            1.19854884589261       -0.55621912602925       -0.06494218142394
H           -0.91683372371996       -3.00247631355318       -1.34115374504357
H            0.84669556903245       -2.99592614790691       -1.39734863883692
H           -0.06673123092139       -1.72352336573375       -2.20824868715875
H           -0.85069442692196       -3.03517860805739        1.25330478559867
H            0.06531874546918       -1.79244523647128        2.10582018242466
H            0.91299235850477       -3.04558391725591        1.19978083090740
H           -2.89279318498601       -1.83076822498846       -0.01140247146627
H           -4.83907701561426       -1.10897715214946        1.84917073050437
H           -7.23381572366077       -1.61971011838037        1.91106664565855
H           -9.48132243967739       -1.47028325652461        0.90515918033936
H          -10.93486877848454       -0.72683146349378       -0.90325344754999
H          -11.22645015706700        0.43837386541156       -3.06591828029602
H          -10.28328406759038        1.69372741487446       -4.95144848537768
H           -7.88660049938010        2.21643055452680       -5.02196927987397
H           -5.63117563086490        2.08476182728360       -4.00999532609053
H           -4.18187141826356        1.34569248102869       -2.20674796074599
H           -3.68205474122417        2.36804468110037        0.05962059332604
H           -1.25715625747461        2.84022758185576        0.04702022310205
H            1.28504915644335        2.83335292289549        0.01754812135538
H            3.70517599301881        2.34981858968921       -0.07514841478603
H            4.73813400836420       -1.13926314085268       -2.00483659009877
H            7.12519870350968       -1.64326460294183       -2.21400245382306
H            9.43169077388164       -1.47316036265253       -1.35787013175140
H           10.99549504473268       -0.70670875502326        0.34599390095514
H           11.42013860794464        0.47699686554600        2.47575752811367
H           10.59355725168239        1.73677276144094        4.41254235006501
H            8.20207394104892        2.23719694333575        4.64083111439063
H            5.88466798733045        2.07358850223118        3.78584026641733
H            4.32552658976273        1.31368525572509        2.08671732081818
H            2.89221075850226       -1.84463767867511       -0.15157875754346
