109
 energy: -23.795220447486 gnorm: 0.000857377682 xtb: 6.5.0 (97a52f5)
C            0.93086532313938       -0.14899553634152        0.06559866410071
C            2.44118215486845        0.16059124365688        0.04778572987626
C            2.90830349128357        0.43321852206980       -1.39625172085374
C            2.68974736332809        1.42113066885097        0.88648076684584
C            2.07867813609862        2.61014860320542        0.52945757811531
C            2.27797795725049        3.78651493996566        1.24179401473128
N            1.62909769268174        5.00528076198957        0.83927595455540
C            2.26044444493963        6.24446212957999        0.60836208867438
C            3.60440257793781        6.61212553757724        0.67490094566731
C            3.94994931282130        7.90860580082115        0.38228469369644
C            2.98033550473128        8.84906683605991        0.02070536806178
C            1.65277581292463        8.50278659352615       -0.05519706739360
C            1.28578194616423        7.18783154771012        0.23835902453635
C            0.01076635259013        6.51111974443821        0.24264410074420
C           -1.28713008820279        6.94652069566375       -0.03253032745424
C           -2.31978114242717        6.04585125092003        0.06976198776578
C           -2.08350495586649        4.71930274477005        0.44388907800162
C           -0.81266522378068        4.27580309283447        0.71594669085209
C            0.24844166526154        5.17511445180272        0.61085149359478
C            3.11662718638697        3.76324693592763        2.34630520700745
C            3.72900358195097        2.59443414394667        2.71901289050324
C            3.52979106380085        1.41154624623826        2.00748534724133
N            4.18804065483647        0.22310728877762        2.42849051038790
C            5.07776873255607        0.27063987550961        3.56848339768836
C            4.57811856009541        0.18763530810680        4.86815835650565
C            5.41820542345639        0.27487342437196        5.95062131402541
C            6.79442619347850        0.44769143137361        5.77713236919438
C            7.72975338205546        0.57206646560940        6.90673871496754
C            7.36468424569830        0.20091773841776        8.18461288132064
C            8.27300857683512        0.34381999564750        9.21295771466431
C            7.92331399441924       -0.03380199445938       10.59545983900101
C            8.70436523266429        0.43580248195248       11.64917799229806
C            8.40907057247975        0.10892018981436       12.95436650048665
C            7.32661566305038       -0.70028214190244       13.23521528969528
C            6.54483027796225       -1.18393788280833       12.20508298632028
C            6.83842571182872       -0.85796943118292       10.89871233811863
N            9.48536196412039        0.84506318430824        8.98010475250119
C            9.75952645224761        1.17321679175202        7.71705260525420
C           11.09802903421038        1.72815276390100        7.45209503289395
C           11.49140711852907        2.04197237268932        6.15389987847740
C           12.74078540534256        2.56482917633190        5.90328879809561
C           13.61992054426351        2.78457803466785        6.94587313596112
C           13.24512027266861        2.47922003692393        8.24000735007761
C           11.99595705975828        1.95572655187239        8.49135075311752
N            8.94800141444212        1.05605349165326        6.66640449581198
C            7.28704567611788        0.52994725930375        4.47437911886530
C            6.45023256912928        0.44081332848723        3.39065012345996
C            4.01221258365363       -0.99604754943415        1.71797442143745
C            4.66544974459293       -2.14715172579817        2.15739592646572
C            4.53330484285868       -3.33986673435199        1.49330523891957
C            3.73778039854768       -3.41987531051659        0.35957058205362
N            3.60451384475763       -4.65761757921606       -0.36091235638851
C            3.24890292571737       -5.90663608783174        0.18800884188132
C            2.93220641122461       -6.27430829824010        1.49582963722166
C            2.60906493891103       -7.58383484837026        1.75432705209026
C            2.59158113343725       -8.53761360400198        0.73184226143911
C            2.89243179488188       -8.19135725605254       -0.56333666695724
C            3.22115426982393       -6.86315914671381       -0.84226648352492
C            3.56921596593146       -6.18430538546832       -2.06749972040211
C            3.70058815633064       -6.62758259049928       -3.38511336335569
C            4.06434664171103       -5.72155817971425       -4.35198814192660
C            4.30267724393838       -4.38186261227267       -4.02976752356586
C            4.17392394485631       -3.93021919944175       -2.73935062464642
C            3.79710651453013       -4.83463707388225       -1.74629507311995
C            3.07930816416888       -2.27628463757724       -0.07559675680778
C            3.19733429550262       -1.06390171600751        0.58040196183965
H            0.35049056719307        0.68271390513253       -0.33063104667209
H            0.59426359448073       -0.33858963233381        1.08420576764057
H            0.69844742029093       -1.02746720938917       -0.53414639461529
H            2.38220256468461        1.28178282931942       -1.83042770555654
H            2.73217787294041       -0.42705394789817       -2.03997686054988
H            3.97492303331681        0.65389011345108       -1.41462287370150
H            1.43640823892588        2.64452569001093       -0.33094683847971
H            4.34555292878685        5.88177772877531        0.94528814908873
H            4.98460124652211        8.20649126520672        0.42966493075459
H            3.28032516939805        9.85938812181645       -0.20384945073596
H            0.90133830686535        9.21926591752515       -0.33636554940310
H           -1.46084655030926        7.96976972536662       -0.31552005263041
H           -3.32749784830218        6.36634115870218       -0.13778413150053
H           -2.91278268139844        4.03533290151939        0.52053046445585
H           -0.62445556342684        3.25956064448688        1.01227391877063
H            3.26941131645562        4.66883029493238        2.90701548788995
H            4.37722637712510        2.58173322609364        3.57684668105669
H            3.51812304288367        0.06359898448775        5.00568896894041
H            5.00569855629088        0.23429841592708        6.94272882420941
H            6.38557154827070       -0.19146765801253        8.37633505389507
H            9.54816574148431        1.06448558595588       11.42471116142273
H            9.02336358768361        0.48454837130643       13.75636693696544
H            7.09423040253443       -0.95682036842978       14.25598132220535
H            5.70348871231357       -1.82122602008717       12.42379200004952
H            6.23447720837828       -1.26079619731986       10.10536343306643
H           10.80060141567466        1.86936524830999        5.34731730682136
H           13.03214663829173        2.80290760524086        4.89317597324156
H           14.59735674282941        3.19414542152565        6.74971490925596
H           13.93045011891335        2.65176364992947        9.05394588091238
H           11.69667022393853        1.71716458321276        9.49683314112207
H            8.34404338238680        0.67170285437699        4.33228012740030
H            6.83767413137099        0.51207750542581        2.38939582364441
H            5.28596536279066       -2.08930390695919        3.03379925606016
H            5.05205914565314       -4.21933871401961        1.83268713381953
H            2.93930209292196       -5.53433223484719        2.27574297572236
H            2.36335990176229       -7.88201761871469        2.76041312600253
H            2.33521768302469       -9.55821812261561        0.96390483207633
H            2.87676634590681       -8.91786280070798       -1.35646923699597
H            3.51933380947886       -7.66065129585587       -3.62399622433024
H            4.17113259241630       -6.04771026968584       -5.37341437764480
H            4.59253285261818       -3.69397662625317       -4.80711868480264
H            4.36418582878156       -2.90360943739253       -2.48298295317300
H            2.45596823229403       -2.35430284842866       -0.94698917644820
