51
 energy: -10.981196864322 gnorm: 0.000488270735 xtb: 6.5.0 (97a52f5)
C            1.45575493222832       -0.31461252582557       -0.75988341191867
C            2.83144761718109       -0.43375475814255       -0.08982215637765
C            3.91945149614383       -0.76605769857669       -1.11999168024684
C            2.80342161574680       -1.48088662423451        1.02811685869847
C            2.54507779575915       -2.83243097392631        0.97249739844285
C            2.57760272501234       -3.58966924913764        2.14349994185773
C            2.31978900824881       -4.96679030213763        2.10095543775053
N            2.10608929392135       -6.10823663070734        2.06423926003953
C            2.87094111433829       -2.96321459277673        3.35801170467751
C            3.13029961848072       -1.61256948740413        3.42204856163476
C            3.09741235321473       -0.86484195354314        2.25016420019833
C            3.32713341103497        0.56089136969189        2.03129344237058
C            3.64329654166150        1.57264704217771        2.93332902816944
C            3.80533466270152        2.85462881761201        2.46588422839501
C            3.65922192142339        3.15966950671552        1.10424527258630
N            3.81993999939524        4.51263585285888        0.63362904611552
C            2.72539560953916        5.20899409388581        0.04511794418820
C            1.46223914325565        4.64207540905207       -0.02098813300316
C            0.40227710616072        5.32572051371738       -0.58292880628032
C            0.59088778741813        6.59461753109583       -1.08481671171151
C            1.83705454445487        7.18270837912243       -1.01824949432078
C            2.91624173290380        6.51342445352990       -0.45295741764708
O            4.14964213840176        7.15923919089217       -0.38726388044976
C            5.21233746912639        6.48245456060450        0.20909678362877
C            6.44820667816156        7.11335426114117        0.29079583282248
C            7.53549758773618        6.47761941169732        0.85339676851880
C            7.40604821377931        5.19555054802871        1.34040587224346
C            6.18642559419174        4.55170662037771        1.27063282385547
C            5.07756072662054        5.17602794922667        0.72137975478387
C            3.34090478882619        2.13391718704200        0.20637090976850
C            3.17762771511398        0.85068891838992        0.66902931842237
H            1.17906135390348       -1.24760461170934       -1.24889215747878
H            1.45576087985304        0.47480085152483       -1.51025576211250
H            0.68993750232364       -0.07958782614252       -0.02184779362375
H            3.70977410531860       -1.71292413170971       -1.61557386677905
H            4.89230269382977       -0.84550763373562       -0.63656025295958
H            3.98304655618010        0.00931240948579       -1.88218379116131
H            2.32021860649609       -3.30347156556696        0.03305484910768
H            2.89143057823903       -3.55923391024439        4.25430540270551
H            3.35529232942797       -1.13299093164774        4.35808155264208
H            3.75246485378936        1.34380172720463        3.97855937439759
H            4.03542850480096        3.65409317973682        3.14810585144088
H            1.31009139443129        3.65688771558163        0.38157935217111
H           -0.57199211999970        4.86725167034379       -0.62659104863749
H           -0.23468813906548        7.12986756471519       -1.52423861428066
H            1.99461333147235        8.17637740184220       -1.39838339829262
H            6.53899611110425        8.11102630943846       -0.10072609345379
H            8.48604387889811        6.98232696628723        0.90772393311564
H            8.25559566874479        4.69432229595224        1.77435495479760
H            6.09170059518076        3.54629229104477        1.63887197244087
H            3.23268037289069        2.35381340715082       -0.83934316125581
