77
 energy: -16.615837781701 gnorm: 0.000659158743 xtb: 6.5.0 (97a52f5)
C           -0.62675515794867       -2.61035142033040       -0.74186469711581
C           -0.10300240819543       -1.64467384604034        0.33740973542638
C            0.13319255241945       -2.40427664970325        1.66008633104722
C           -1.15572844787800       -0.55762696114174        0.57508006020393
C           -2.38416991905415       -0.88655291072684        1.12070327107702
C           -3.34386392278099        0.07500200741711        1.37555400941684
C           -3.09535187490632        1.39073281876235        1.07173807745660
C           -1.89181222947576        1.76407579145076        0.49158312011895
C           -1.63731492651012        3.18100235700220        0.15041390473546
N           -1.07319889258350        3.43307095619491       -1.01954449921843
C           -0.82050849022403        4.70962721395921       -1.25266455093969
C           -0.15012230529895        5.03452393730182       -2.52170569944105
C            0.10493994502017        6.35437298953858       -2.87988989733490
C            0.73539726647542        6.64845273047711       -4.06834223294643
C            1.12222858245652        5.63003040816391       -4.91740798547740
C            0.88285980713560        4.31459891283373       -4.57163517913803
C            0.25459407655701        4.01925090529762       -3.38294297577751
N           -1.11334058385650        5.70803507900822       -0.43546077203418
C           -1.68829261633299        5.33959863080064        0.69935550473444
C           -1.98140789312930        6.39934098688351        1.67892998526095
C           -1.60598004952908        7.71656637630302        1.43190743597220
C           -1.85459341199029        8.70413875458894        2.35883636139349
C           -2.48249044031715        8.39313148617385        3.54898469706361
C           -2.86058062746239        7.09056414827570        3.80946652512914
C           -2.61195062373404        6.10200673585115        2.88343555402309
N           -1.99285213592426        4.09676585311452        1.03915257173020
C           -0.89970793267721        0.78221729302165        0.24991301933340
O            0.31067934639968        1.20776660615090       -0.27677531848118
C            1.36561886700249        0.31245375700744       -0.38843125124326
C            2.61845875272855        0.83339053368646       -0.78770240944085
N            2.77727990871424        2.24217502606167       -1.01911731701453
C            2.38483346812108        3.28775735152240       -0.15775094144446
C            1.75947643920792        3.26533219368896        1.08914929011862
C            1.48851439350992        4.45471339924028        1.71821460620653
C            1.83702959294458        5.67488899252864        1.13316177979204
C            2.46372344581603        5.71788743086667       -0.08817295841448
C            2.74429210039498        4.51575255628530       -0.73932056209906
C            3.37859380132628        4.22337346603353       -2.00048586924179
C            3.91946095241730        5.04448695735535       -2.99071954049728
C            4.44556702658344        4.45868360926843       -4.11629737267764
C            4.43772814898410        3.06978541439411       -4.27370572762760
C            3.90912842813134        2.24985599194683       -3.30762889704187
C            3.37816995090682        2.82642104858167       -2.15363450272278
C            3.69376018609883       -0.02265696230910       -0.94378993133731
C            3.55112335940790       -1.37134120931127       -0.71410010652219
C            2.33182488618742       -1.87834190750450       -0.31272182237970
C            1.23058395881399       -1.05632808689425       -0.13244904142012
H           -1.56997051244600       -3.06368979237472       -0.44074305581019
H            0.08346896958643       -3.41379437893365       -0.93111236870277
H           -0.79208097571861       -2.07927332632225       -1.67847781674427
H           -0.78313525130135       -2.86319859456479        2.02674645071303
H            0.49907363681891       -1.72384612342861        2.42806725244908
H            0.86734989947186       -3.19858886865999        1.53787682736263
H           -2.59871343093127       -1.91458757456452        1.35449252314658
H           -4.28778830270451       -0.20833861767124        1.81151110089803
H           -3.83572176240572        2.14690065196913        1.26720022169325
H           -0.19594397942155        7.14088612659213       -2.21045272022770
H            0.92829654607854        7.67447155991923       -4.33577810896909
H            1.61796105643929        5.86101422579757       -5.84594598346204
H            1.19723346221987        3.51895900945512       -5.22694509814492
H            0.08472791762104        2.99762947057482       -3.09125107807385
H           -1.11016862203291        7.94863293252253        0.50575214988771
H           -1.55714434134516        9.72000799308221        2.15615533352615
H           -2.67563970241645        9.16603979975316        4.27476674026172
H           -3.34875785149419        6.84719925692151        4.73901294853663
H           -2.89832009735506        5.08402857081276        3.08088319604128
H            1.47146236329045        2.32317093537360        1.51946962966317
H            0.98438643649058        4.44972686771472        2.67053394595183
H            1.59988668348888        6.59415868324091        1.64270345872379
H            2.72977900983529        6.65228406843129       -0.54978387913925
H            3.90926582772660        6.11286660877568       -2.86668696634354
H            4.86371484490887        5.07823089216513       -4.89237826299665
H            4.85092492813448        2.63680740801109       -5.16982713208763
H            3.88912684623856        1.18201524664379       -3.42990654286189
H            4.64610234578849        0.38372108542218       -1.23618411675019
H            4.39330025278227       -2.03137467933003       -0.84240354108819
H            2.23476944893848       -2.93555019039697       -0.13818888871756
