78
 energy: -16.640167646971 gnorm: 0.000564403081 xtb: 6.5.0 (97a52f5)
C           -0.75939833293867       -2.64350227248029        0.08910057267838
C           -0.14951631584219       -1.57007846551166        1.00974375966210
C            0.25000941587504       -2.19601989063436        2.36420822807098
C           -1.19847915296611       -0.48514986145970        1.26076030651161
C           -2.33565748569493       -0.79429845348101        1.98684580404797
C           -3.27974389677191        0.16443354270870        2.29244485062545
C           -3.09711598505027        1.45682015115301        1.87107390069944
C           -1.99078680479172        1.81247411552062        1.11107066536489
C           -1.83400793811577        3.23041505669783        0.73106183123956
N           -1.24611736263733        3.52228054420872       -0.41755785247249
C           -1.12112151266964        4.81735712407208       -0.66552868939810
C           -0.44168078316249        5.20219168748009       -1.91077281511069
C           -0.25024903649668        6.54202004361901       -2.23603360493679
C            0.38665294461869        6.89673976614295       -3.40410043425347
C            0.84093450910172        5.91944947659832       -4.26778038651651
C            0.65969376647544        4.58709151626287       -3.95581374155073
C            0.02947414449955        4.22993402562610       -2.78602578410273
N           -1.55673321308296        5.79402840446873        0.11430078943099
C           -2.15644524010209        5.38710173913032        1.22133256368298
C           -2.66828931508228        6.42328904491761        2.13223411855536
C           -2.49347998640632        7.77387370389147        1.84276780345341
C           -2.97137045570064        8.74353543747837        2.69570341492350
C           -3.63221407785568        8.38159622754810        3.85333268215548
C           -3.81337231921900        7.04601618294902        4.15542400609041
C           -3.33581322353273        6.07526258249304        3.30341504035027
N           -2.32769918287939        4.12401914116181        1.57771019135381
C           -1.02444675739119        0.82471824728213        0.78509724393265
O            0.07846867700640        1.19142656025182        0.02182519215124
C            1.15203863957913        0.31479902251437       -0.11494464313387
C            2.32636636029498        0.78789068170380       -0.75811219180612
N            2.40089736822725        2.09173353182332       -1.37407480268487
C            2.47869237855579        3.30657825612048       -0.61514219108082
C            1.69540435816470        3.49207639930221        0.51779990156881
C            1.71820135606866        4.67657497545165        1.22038349579137
C            2.53336297674675        5.70611620382397        0.80338405636533
C            3.32936169368539        5.53982557233004       -0.31467929403903
C            3.31681457148956        4.35289252223380       -1.02069843154178
S            4.40038651239822        4.19018440356976       -2.40916686629916
C            3.47598540451199        3.04404316652942       -3.38478607794824
C            3.64530366346716        3.04540450524204       -4.75525157029262
C            2.95539239381378        2.15034098272839       -5.55268152447825
C            2.09228351280305        1.24234461488497       -4.97616478983397
C            1.91805501123192        1.23030734295127       -3.60883460495916
C            2.59819702328783        2.12953676044100       -2.79314052324766
C            3.40662460431291       -0.06839781043747       -0.91517920162319
C            3.35226469171235       -1.36361855553362       -0.46190135767127
C            2.20891107097713       -1.82572515082487        0.15345782982349
C            1.10553634913459       -1.00644735344631        0.34222029709136
H           -1.65085275204118       -3.08389415292668        0.53311744702920
H           -0.05040623521562       -3.44740892239342       -0.10290041311663
H           -1.04096714587431       -2.20690306907013       -0.86837166057322
H           -0.60782303992137       -2.63065917815811        2.87368142905960
H            0.68177917903428       -1.43980192561628        3.01858228469368
H            0.98439771493938       -2.98915507951946        2.23794151272554
H           -2.48778031015436       -1.80396736386060        2.32584556039411
H           -4.15107656513386       -0.09878304230044        2.86945189692694
H           -3.81524694292518        2.21713432802059        2.12506579434509
H           -0.60650522672560        7.29644940440976       -1.55694741989273
H            0.53185176604356        7.93735257787902       -3.64392858827623
H            1.34398431686654        6.19584936963415       -5.17983610856296
H            1.03518123318243        3.82397326858230       -4.61603956014309
H           -0.08341989376407        3.19445093193397       -2.51553821081440
H           -1.97646838674209        8.04739906506572        0.93985877180854
H           -2.82937231371513        9.78547028825308        2.45969877259553
H           -4.00660961553422        9.14080064468485        4.52029008841984
H           -4.32889974863331        6.76356660376602        5.05875745095060
H           -3.47376108123306        5.03291781833398        3.53103742025164
H            1.01145344403784        2.71500966582591        0.79837971276451
H            1.08078186909446        4.80552570843422        2.07964879355980
H            2.54820757016840        6.63800062253770        1.34415937161268
H            3.97571423694941        6.33546221210015       -0.64615567000439
H            4.32579368821965        3.75510835238880       -5.19532730937372
H            3.09395366233961        2.16163540991110       -6.62118177098892
H            1.55456290097438        0.54192479218783       -5.59382971666017
H            1.24129456379741        0.52978290935477       -3.15223620217106
H            4.28550559496754        0.29799328959589       -1.41657206264421
H            4.19647058301094       -2.01951156798832       -0.59799980967826
H            2.16908191437551       -2.84948841064540        0.48152102914029
