55
 energy: -11.711692177032 gnorm: 0.000889807550 xtb: 6.5.0 (97a52f5)
C            0.08056016580983       -1.49454348681622       -0.88624588776855
C            1.43981015303509       -1.09034067511485       -0.29935524651120
C            1.28139179125661        0.03927147617466        0.72786722954761
C            2.41140097252951       -0.67826945608273       -1.41187634621211
C            2.32988923508383        0.35311344073284       -2.32610165052732
C            3.35388174536750        0.52146362078961       -3.24131303495839
C            4.44797766195312       -0.32968164532875       -3.24430579021151
C            4.53874618773814       -1.36283361015825       -2.33335704563094
C            3.51489614583808       -1.53556580843250       -1.41175577198723
C            3.36086290889243       -2.53060166724047       -0.34446664475234
C            4.20958499848700       -3.55359676459605        0.03189693891868
C            3.81674924735474       -4.36210707701477        1.09718965768132
C            2.59826829772690       -4.12753428803585        1.77098999647738
C            1.74695788729040       -3.08595178218206        1.38661615686990
C            2.13929037242661       -2.29901254899860        0.33077128119839
C            2.49989102058058       -5.10474801725714        2.82697236546869
C            1.52105312262191       -5.34576137094698        3.79296982560782
C            1.71096514410991       -6.37779857377108        4.68029411458243
C            2.85715988363894       -7.17587463011514        4.61952295103712
C            3.82883163022139       -6.94985726999490        3.67521996404468
C            3.65740132024216       -5.90093781945246        2.77156773418010
N            4.47492769808667       -5.44833637500731        1.71374497432041
C            5.76602888689441       -5.96757197032437        1.35633727839971
C            6.73914617850121       -6.19771872104511        2.35194120135770
C            7.96882030808541       -6.68216323553864        2.03348768472156
C            8.30619496318113       -6.96809826986521        0.68903956167036
C            9.57273780549937       -7.47238514303472        0.32072826658179
C            9.86257233136300       -7.73553702199863       -0.98564980910231
C            8.90753079633768       -7.50819687595719       -1.98490879738173
C            7.67529711999900       -7.02215855493175       -1.66538914781947
C            7.33980685535067       -6.73864539243600       -0.32074738413595
C            6.07461975991396       -6.23705216707795        0.04507669324111
H           -0.39435079705687       -0.65064670051867       -1.38545321614481
H           -0.59066578350278       -1.84858597538458       -0.10460581093762
H            0.20237564257028       -2.29454473177798       -1.61572386328165
H            0.84155914043237        0.92369831573894        0.26831570851619
H            2.24964654156216        0.31900368929246        1.14196088308487
H            0.63889584962216       -0.27092797767897        1.55118538587484
H            1.47795972754290        1.01052676592940       -2.31822134519954
H            3.29946215593805        1.32364487425341       -3.95915632320800
H            5.23607870422476       -0.18378890879734       -3.96500369414151
H            5.38476543874733       -2.02745985944518       -2.32726579731582
H            5.14390360481993       -3.71397265867029       -0.47083604688390
H            0.82338581078530       -2.90571910437882        1.90437078733051
H            0.63983584383065       -4.72971489153679        3.82919359763301
H            0.96514304312182       -6.57717112883550        5.43228685195510
H            2.97859321079999       -7.98218151078873        5.32434477147601
H            4.70604620521065       -7.56880103971280        3.61658545044066
H            6.49379848057305       -5.96620126552452        3.37362500203941
H            8.70310598849585       -6.85118903753827        2.80216379294055
H           10.30731550279033       -7.64740334675600        1.08793964553520
H           10.83292288448231       -8.12030508037935       -1.25456111651736
H            9.15211677855934       -7.72098310505126       -3.01296956099821
H            6.94191741033564       -6.84767339331162       -2.43377438828008
H            5.33185602068784       -6.07474224807220       -0.71386203281511
