36
 energy: -8.046482279953 gnorm: 0.000941587053 xtb: 6.5.0 (97a52f5)
C           -2.03900549772582        0.28179172863231       -0.04450298877770
C           -1.44559152831922        1.34909047771636       -0.06040523189543
C           -0.73052003940703        2.56687752568507       -0.06891360580065
C           -1.41826258723508        3.77600050444162       -0.09339245860590
C           -0.74301857235700        4.97723034136033       -0.10074808746760
C            0.63677139789802        4.99205684455101       -0.08188201967858
C            1.33756574608695        3.80599492566016       -0.05827254279055
C            0.67538832527386        2.58240590380152       -0.05101618513205
C            1.41618843884445        1.38034103589316       -0.02580977666553
C            2.03210365919349        0.32607062511124       -0.00069037129746
C            2.72910610797902       -0.90224210618857        0.02474567551537
C            2.18256650302968       -2.04015739882327       -0.56005150796809
C            2.86281609564467       -3.23981784015893       -0.53907304455835
C            4.09955389858669       -3.32273320337195        0.06789400297768
C            4.65480810091433       -2.20344976082787        0.65430693424658
C            3.97598760405689       -1.00290043824128        0.63312734793823
C           -2.70605007939046       -0.96325955474623       -0.01940078626746
C           -2.24465630296118       -2.03349364942217       -0.77909955009913
C           -2.89371501348351       -3.25029941704763       -0.75129547030680
C           -4.01545251039678       -3.41808083700619        0.03519643751809
C           -4.48631008698616       -2.36594949282102        0.79442707283392
C           -3.83787478257483       -1.14871421762980        0.76806921067144
H           -2.49498109087539        3.76055430371646       -0.10649330671853
H           -1.29201753899541        5.90449456342927       -0.12020344518015
H            1.16571878490820        5.93127996154594       -0.08741558923415
H            2.41444174813428        3.81355012431132       -0.04366671066104
H            1.21697752946028       -1.97111615218896       -1.03079864825903
H            2.42809891547011       -4.11319386376425       -0.99721459860951
H            4.63117359022290       -4.26024425663458        0.08393848686606
H            5.62022470471909       -2.26740479861989        1.12922268913283
H            4.40587503540215       -0.12745485192531        1.08939980710470
H           -1.37071647800325       -1.89767900171441       -1.39289124076928
H           -2.52485208204910       -4.07152653871435       -1.34404054566415
H           -4.52267050389097       -4.36901820650366        0.05615376819265
H           -5.36232146943427       -2.49571107044801        1.40882480768534
H           -4.20180002165741       -0.32568220907954        1.35950147169462
