54
 energy: -11.580777826449 gnorm: 0.000560740485 xtb: 6.5.0 (97a52f5)
C            2.97699651114607        0.28822867748754       -1.55203754551475
C            3.41082069906922       -0.79823824593730       -0.55801803927005
C            4.68171623119222       -1.50974706817370       -1.04246371010295
C            3.62009285325397       -0.20129694944887        0.83882033721163
C            4.51664847964839        0.75476618289677        1.27208342631913
C            4.50921227471450        1.12809162033681        2.60439408993312
C            3.61648994167488        0.55378068991760        3.49586517588529
C            2.71578455215648       -0.40227415467946        3.07228698823445
C            2.71911002852618       -0.78000345312030        1.73655777623812
C            1.89013572133090       -1.76144854098825        1.03040348249660
C            0.88163009620868       -2.56988559248937        1.51494745454809
C            0.25777080723504       -3.43463101228920        0.62013767805343
C            0.64990913770335       -3.48307620763836       -0.73405558582814
C            1.67178868811040       -2.65902129649284       -1.21896244357219
C            2.27894472539885       -1.80487315976513       -0.32970523443108
C           -0.16692852702337       -4.48340943995459       -1.37403602751254
C           -0.19025548306100       -4.97095744588319       -2.68200590207714
C           -1.06804679092604       -5.98048879266719       -2.99354001197950
C           -1.91729734433625       -6.51794232132524       -2.02239893970858
C           -1.90747446668889       -6.04625686309852       -0.73263026056208
C           -1.03561217271974       -5.00839699642375       -0.39887838443834
N           -0.79463236759938       -4.34704605358592        0.82626955828533
C           -1.48488676623017       -4.49137900122676        2.07596674485950
C           -2.86766902267034       -4.74322384434048        2.05387523932286
C           -3.55957453409353       -4.86609255979128        3.21048287781996
C           -2.86663501105344       -4.72868258918987        4.42434201350815
C           -3.50510927581082       -4.84196239234708        5.67781617636032
C           -2.79739143368608       -4.68886754993911        6.83268143770506
C           -1.42687537697849       -4.41648211697550        6.78551432558935
C           -0.78573431320407       -4.30263349726775        5.58719160036338
C           -1.47965733111207       -4.45572271166235        4.36733936760340
N           -0.79979332575104       -4.33702681498827        3.19597059203450
H            3.75670871442449        1.03937926387963       -1.67234918736475
H            2.07594947005954        0.79033329009320       -1.20136153615692
H            2.76534452623786       -0.14143750457253       -2.53044329981965
H            5.50620956784642       -0.80546064336520       -1.14650448082950
H            4.51734146752601       -1.98435381531303       -2.00912702547750
H            4.98289778143513       -2.28064995786669       -0.33403779133686
H            5.20704935290255        1.19712643319304        0.57529832025637
H            5.20567272880629        1.87345457759271        2.95206130130276
H            3.62650259946540        0.85603451421205        4.53037054763794
H            2.01986475645974       -0.85486317988097        3.75649897634085
H            0.59401391395914       -2.55326498409465        2.54764006203703
H            1.97028927713735       -2.69603946784399       -2.24989717032935
H            0.47765047204715       -4.56133582192189       -3.41915116664090
H           -1.09629813795912       -6.37151530813288       -3.99735811135953
H           -2.58612471751364       -7.31963363727646       -2.28991881628197
H           -2.53770208056984       -6.48282633608490        0.02069377321806
H           -3.37401339691820       -4.80083874354870        1.10711269691158
H           -4.61909364506281       -5.05625140989866        3.21290279667783
H           -4.56094563096230       -5.04939548602113        5.70828778829569
H           -3.29314124508374       -4.77609241078534        7.78566214880133
H           -0.87592156165065       -4.29628012663128        7.70402787721725
H            0.26907858298656       -4.09413974468681        5.54976803948903
