59
 energy: -12.503969961740 gnorm: 0.000889659672 xtb: 6.5.0 (97a52f5)
C            2.85407229484080       -0.64950473033957       -1.18224074051732
C            3.72945208379245        0.08309534218474       -0.15588115592773
C            5.02832514346328        0.58590254178071       -0.80143286464874
C            2.95821416499439        1.24252657395382        0.48629999123440
C            2.41485871748361        2.37514241819666       -0.08646025665816
C            1.75683718515180        3.28660384402196        0.72042755252530
C            1.64161609095872        3.07077672515774        2.08488124347911
C            2.18067317189648        1.94119301522282        2.66665268756724
C            2.84098430360055        1.02308903568155        1.86133294871243
C            3.49471901147676       -0.24258181799306        2.21171263372911
C            3.61981108960382       -0.85365615991337        3.44396382131938
C            4.29777682735117       -2.07016821223176        3.49573050309957
C            4.84413105857127       -2.64581308438558        2.32812797099335
C            4.71028993389304       -2.02029236601192        1.08348660312398
C            4.03482564638814       -0.82441401947484        1.04014613152419
C            5.50247095750694       -3.86663855585864        2.72382838316564
C            6.19757001366091       -4.83582282150451        1.99768549603973
C            6.71445478915561       -5.91764513739796        2.66920054742871
C            6.54875933556267       -6.05235973117592        4.05115371320771
C            5.86846195766031       -5.10681899819064        4.77890349898983
C            5.34186202352769       -3.99878810372467        4.11471917712498
N            4.60257869838957       -2.89863692501770        4.59569579027600
C            4.24317747927440       -2.64622206687859        5.96516604985117
C            2.93005552634643       -2.34907594732630        6.31221868096004
C            2.59512108636904       -2.09780841898474        7.62469078364360
C            3.56191270179620       -2.13849040009058        8.60767624283295
C            4.88755856820584       -2.43420755137535        8.29095659915930
C            5.93389356124695       -2.47407942756825        9.33941887509332
C            7.19097270552423       -1.91609412606052        9.11320652477495
C            8.16366814341697       -1.95053222626869       10.08918126948296
C            7.90113212068196       -2.54359762003695       11.30796787844004
C            6.66239118652245       -3.10361434993445       11.54870122384792
C            5.68728307286209       -3.06992479521532       10.57504078878103
C            5.20756886400847       -2.68580958062238        6.96181746526174
H            2.58519914282600        0.01068674916523       -2.00604348683594
H            1.93454217301545       -1.00413712863279       -0.71770704169315
H            3.37727321625919       -1.51168387346141       -1.59438728444523
H            4.81562947300411        1.28548864585691       -1.60899821171996
H            5.60444865876860       -0.24250936485168       -1.21217862027727
H            5.64820734609506        1.09682604298217       -0.06537110433735
H            2.50706509041868        2.53644056204528       -1.14637957493144
H            1.32906839334860        4.17364301190503        0.28245220960052
H            1.12643176163781        3.79193704068511        2.69830811470190
H            2.09670167207113        1.76529453974081        3.72473782753356
H            3.21949710592391       -0.40548791751434        4.33307337544660
H            5.12575769320274       -2.45887049899309        0.19550987059853
H            6.31891772914021       -4.72493988340282        0.93447018427312
H            7.25368507437856       -6.67455468118613        2.12346977396419
H            6.96175827921996       -6.91275622847020        4.55199057187831
H            5.73193106677116       -5.20725404696533        5.84076965771080
H            2.17914602703455       -2.32799365715043        5.54172867243742
H            1.57448486840030       -1.86707137778414        7.88324530807391
H            3.30129267742180       -1.92941811600637        9.63085831263671
H            7.39198773844708       -1.44362490006733        8.16706739512689
H            9.13028898113696       -1.51179641240577        9.90166105064262
H            8.66253224651132       -2.56895821058314       12.07059454253615
H            6.45822270253010       -3.56901082264766       12.49933588054759
H            4.72482316879285       -3.51572414802033       10.75867900188611
H            6.22294819845409       -2.91253764685505        6.69422751672093
