48
 energy: -10.185769199921 gnorm: 0.000830834507 xtb: 6.5.0 (97a52f5)
C            0.19766948889807       -0.74177515131597       -0.63245340533965
C            1.46081217498334       -0.51652292983440        0.21023855882355
C            1.80870461734651        0.97664223151667        0.29123146150766
C            2.64031754570655       -1.31743139018011       -0.35340386042937
C            3.25676549442839       -1.24328537352882       -1.58629933331699
C            4.31677803725871       -2.08969704125153       -1.85915352103849
C            4.75792850927199       -3.00026612917875       -0.91174063779043
C            4.14934266907080       -3.08034882114187        0.32427233309758
C            3.08597048446650       -2.23266412566198        0.60380364109742
C            2.26857936859318       -2.10958489388167        1.81552031949838
C            2.35003663351386       -2.80738456916900        3.00459822464391
C            1.42929069780543       -2.49366606290641        4.00272463757290
C            0.44344762567933       -1.50497413718149        3.79334464909924
C            0.37206107533288       -0.79889795143919        2.58735403941539
C            1.28963908562236       -1.10786708113477        1.61286403741459
C           -0.36178387813957       -1.44634852890153        4.98770462982780
C           -1.46523661623816       -0.66583723419795        5.33775081154596
C           -2.02732173117047       -0.83921271837765        6.57931716144762
C           -1.50759884282741       -1.77370714095170        7.47997989913596
C           -0.42300707282781       -2.54840901935644        7.14943382875124
C            0.15557932392932       -2.39257134000701        5.88975461921211
N            1.25659964965527       -3.03975789458390        5.29161875559839
C            2.06423777735361       -4.06967128843085        5.88683971963743
C            3.44495260819131       -4.00081419023427        5.86927823176545
C            4.15003660354899       -5.01797877178509        6.45773272985776
C            3.45959729370990       -6.05945471674582        7.03807709089677
N            2.14015749260933       -6.16177278672245        7.07445357716320
C            1.48073682730374       -5.17114408085633        6.50225339333022
H            0.33824632170533       -0.37631237273386       -1.64881565853075
H           -0.65625927840127       -0.22236249734063       -0.19939039418512
H           -0.04262741258681       -1.80296716331323       -0.68419749537033
H            1.99061926726994        1.38789926207803       -0.70088555407380
H            2.70556613067590        1.12791749172182        0.89094623554275
H            0.99686304673212        1.54033600154253        0.74927040719618
H            2.90928892601552       -0.53485569238088       -2.31782815923141
H            4.80429071278600       -2.03987540795758       -2.81903125599857
H            5.58382080292371       -3.65321623209909       -1.14235482490772
H            4.48457831923639       -3.78400887940925        1.06581616787389
H            3.08547616842146       -3.57493975093588        3.15113861730521
H           -0.37622510581651       -0.04463799719763        2.43094614081930
H           -1.85681750902174        0.05301392073731        4.63984467877855
H           -2.88027500626380       -0.24584296687322        6.86481783665718
H           -1.96525793540240       -1.88590898142322        8.44923163360578
H           -0.01285677098409       -3.26059130104592        7.84258727147575
H            3.93928840586594       -3.15944403953208        5.41553758231671
H            5.22760409859881       -5.00174473403366        6.46837897758285
H            4.01451796370041       -6.86111654958813        7.50238188205212
H            0.40495591146841       -5.23622897277561        6.50636031866871
