96
 energy: -21.082332749213 gnorm: 0.000556434189 xtb: 6.5.0 (97a52f5)
C            0.03029161026403       -1.44153508643533       -0.49236274681412
C            1.30546332912508       -0.91416719071356        0.18029547527740
C            1.27793420866675        0.61701815397497        0.28556130357802
C            2.55317290025993       -1.38423760801532       -0.57568163522548
C            2.95100688178167       -1.13552245673173       -1.87377608651845
C            4.13711408094937       -1.68301863351818       -2.32925330788168
C            4.91897327015290       -2.46988059991340       -1.49826080614327
C            4.53040929168726       -2.72299094038790       -0.19851099695947
C            3.34094367438975       -2.17629285758357        0.26422876276447
C            2.69905209167991       -2.28319936503946        1.57834585967189
C            3.11093946331568       -2.96542062762491        2.70902915997512
C            2.28824133965912       -2.90385350245317        3.83243898793383
C            2.40477881514769       -3.49609566475648        5.14469281173686
C            3.39071806464887       -4.28759999734380        5.72581909574910
C            3.24028691182280       -4.69663360718261        7.03910806048722
N            4.25837470038156       -5.49885671715972        7.66338031434895
C            4.06211114573210       -6.72554467344406        8.32921037412338
C            2.90295946990247       -7.46727895112074        8.55707127406527
C            3.00330677526763       -8.65892349687151        9.23193977901324
C            4.23980470595599       -9.12961512987395        9.68411844796250
C            5.39233291307465       -8.41460538344414        9.46359776060307
C            5.30649790132904       -7.20133036841936        8.77856916677033
C            6.30409468723046       -6.23709539466568        8.37890996022816
C            7.68810132789190       -6.18644830001223        8.55436873668995
C            8.37700279522488       -5.10857862254977        8.05243887600570
C            7.71151799033469       -4.07832672609809        7.38116481734246
C            6.35089551682127       -4.11445117572471        7.20007166930823
C            5.63641658215971       -5.20443053756926        7.69770223677299
C            2.09808925773111       -4.31193825603038        7.76464198904113
C            1.11930848044305       -3.53311758014595        7.20252737180327
C            1.26740473599532       -3.11900904446184        5.87872819646560
N            0.45456162198189       -2.29622377269683        5.06800838693385
C           -0.78226773037461       -1.67343179614343        5.45161874595410
C           -1.82920224916632       -2.42895395977074        5.97219225035298
C           -3.02141790314952       -1.83382020809025        6.30618917309569
C           -3.20486854342123       -0.46216252336320        6.14087787778253
C           -4.48347412639634        0.17640221529202        6.48859321111676
N           -5.49549208300047       -0.61685345947311        6.80556939478427
C           -6.62275201384417        0.01452697264191        7.09347171683753
C           -7.79402810420966       -0.81239565937064        7.43216981054132
C           -9.00942823395417       -0.22173613989809        7.76662478117736
C          -10.10626708697510       -0.99504906915221        8.07634196413262
C          -10.00891323863001       -2.37255754140575        8.05702079107323
C           -8.81030849962088       -2.97433009675638        7.72721122970838
C           -7.71265096916052       -2.20200282357663        7.41768523661660
N           -6.78497850810924        1.32861154016187        7.09743858411468
C           -5.70416172479926        2.02044375619735        6.77200630586145
C           -5.81674442921665        3.48929736021799        6.76213201739401
C           -4.71026860566081        4.28514749476660        6.47881036027934
C           -4.81422549903994        5.65850080498302        6.47243819027889
C           -6.02551604719741        6.26164707440561        6.74886360930332
C           -7.13304729171193        5.48642904983900        7.03165736662021
C           -7.03022271847936        4.11293062603582        7.03861649538754
N           -4.53004797260372        1.49951428921454        6.45293283926147
C           -2.15096182564824        0.29204780764516        5.62899132697969
C           -0.96192048429482       -0.30297357866197        5.28633290460110
C            1.08481112250073       -2.16647106068134        3.81543597310790
C            0.67717227788446       -1.48310133147719        2.66653721735176
C            1.48993783815553       -1.54802804845902        1.56227641803517
H           -0.07264174881005       -1.04058158477853       -1.49984696626274
H           -0.85463939269607       -1.16000414731769        0.07694077872388
H            0.05558704223746       -2.52835546750324       -0.56159178852896
H            1.20471950065551        1.07377186322814       -0.70054635826762
H            2.18635530926402        0.98406784813305        0.76168348977538
H            0.42721693996439        0.95066619566035        0.87840925155398
H            2.33947410134834       -0.52459561775935       -2.51441409037167
H            4.45553013277155       -1.49580410704156       -3.34164480285833
H            5.83968917327273       -2.88844906544561       -1.87042230889627
H            5.13084759661714       -3.33226363685457        0.45381285666389
H            4.02656681718748       -3.52589362620058        2.72133013437915
H            4.25672482254053       -4.57987233265523        5.16253864288945
H            1.95672770237441       -7.10340597616011        8.19895364892004
H            2.11591038392863       -9.24227145933230        9.41522575151918
H            4.28886143305171      -10.06849062293096       10.21073053918889
H            6.34807377322685       -8.77183172367170        9.80430507741322
H            8.19240887787035       -6.98136639818919        9.07484010794138
H            9.44571616382088       -5.05425520273453        8.17943201796891
H            8.27623825409940       -3.24284610115749        7.00108871022791
H            5.83165412835823       -3.32203266365951        6.69155890209132
H            2.01205190967193       -4.63144619875648        8.78832561187423
H            0.25361377046382       -3.22980921050039        7.76331923653074
H           -1.69548035554947       -3.48992606330692        6.09049257537619
H           -3.83313167831232       -2.42096616793856        6.69824367116103
H           -9.07812587532358        0.85179740648989        7.77757900535551
H          -11.04128916425540       -0.52464710090977        8.33343078084873
H          -10.86768014896206       -2.97735160875560        8.29852206489395
H           -8.73396618064803       -4.04927143866851        7.71104323544121
H           -6.77616603349655       -2.66362259642591        7.15831822759048
H           -3.76988525598313        3.80806684885134        6.26555287410473
H           -3.94938194739827        6.26277945630433        6.25218224328257
H           -6.10643693317127        7.33636990552310        6.74396083604541
H           -8.07865271222919        5.95661663291358        7.24706690574996
H           -7.88855469641681        3.50260785203234        7.25802729802827
H           -2.28714788157473        1.35143911033237        5.50047571154138
H           -0.15013237388060        0.28321543396045        4.89258544462328
H           -0.24565734493776       -0.93506601590701        2.64907159663414
