76
 energy: -16.472331093534 gnorm: 0.000738013103 xtb: 6.5.0 (97a52f5)
C            0.12125300848331       -0.92442197369197       -1.30750153480340
C            1.46131797899502       -1.09132756244730       -0.57785118295808
C            1.46809899177875       -0.31058730961760        0.74397023550990
C            2.62653900587808       -0.65307486448462       -1.47207353889588
C            2.89599252631985        0.57514450862327       -2.04125251852457
C            4.02420192872096        0.71721477554225       -2.82919487436044
C            4.87514660855371       -0.35478210307853       -3.04710988710474
C            4.61441249841821       -1.58654571823491       -2.48231798326085
C            3.48381955449290       -1.73498758310518       -1.69030178382786
C            2.96704814920747       -2.91667415973572       -0.99236683420741
C            3.47343197375338       -4.20271591581660       -0.94092749482991
C            2.75260728795051       -5.14979732836837       -0.21491869845869
C            2.97132207574255       -6.56001545296594        0.01058578605437
C            3.98524351101414       -7.42874845726222       -0.39330863224515
C            3.91317985611256       -8.74782146783464       -0.01315984611427
C            2.84905830417195       -9.21491129018002        0.76281440825818
C            1.84298621023103       -8.37101624439584        1.16599409533348
C            1.89773631255801       -7.03077607808857        0.78510141992191
N            1.02199291804073       -5.95671155523510        1.05486236219663
C           -0.23204640177484       -6.03862523820127        1.75138071835187
C           -1.17484769044362       -6.99902490251215        1.39689106142582
C           -2.38854504758576       -7.05744227297794        2.03650932101985
C           -2.70059337905525       -6.16226460803804        3.05710546520140
C           -4.00608896876511       -6.22020895431626        3.73239128279556
N           -4.89893521200778       -7.07307282780641        3.25371991979642
C           -6.05916270367533       -7.07390828117195        3.88995999073961
C           -7.10167695567895       -7.98865971745537        3.39251484434833
C           -8.35758710765711       -8.03012819798776        3.99113383118825
C           -9.33301552961661       -8.88155144434922        3.52152368453871
C           -9.07126918273221       -9.70681018197891        2.44544037773129
C           -7.83025146808357       -9.67765270455850        1.84018167289091
C           -6.85430917929512       -8.82637675412084        2.30867991691466
N           -6.36036449319741       -6.31718477507232        4.93350470151310
C           -5.38851026114517       -5.51017700291949        5.32994323137434
C           -5.65644479146687       -4.65185666499029        6.49734947453273
C           -4.67465130594742       -3.79978496854928        6.99478859543493
C           -4.92355526684237       -3.00397259485210        8.09106879960633
C           -6.15773118330708       -3.04464068672813        8.70948870334708
C           -7.14299570456015       -3.88380298437945        8.22763158782761
C           -6.89510617475871       -4.68029771132986        7.13167860196065
N           -4.19540590894781       -5.41337791801748        4.76519914667781
C           -1.75139567916042       -5.20749550919157        3.41600239801100
C           -0.53928305157967       -5.14416125714393        2.77283190660159
C            1.55172455325031       -4.80427296088329        0.44264549209353
C            1.04930136508558       -3.50131812791073        0.38250630001336
C            1.76402353387807       -2.57226141661631       -0.33170085527264
H           -0.06843298451750        0.12321532842908       -1.53716107355953
H           -0.70226139833960       -1.29270629463982       -0.69698992657307
H            0.12336707641191       -1.48133420847006       -2.24372506698616
H            1.31530608467313        0.75337222351687        0.56785287625008
H            2.42113330087404       -0.43472769923373        1.25676901622327
H            0.67883235842204       -0.66222098367165        1.40723660462833
H            2.23088247368783        1.40328100099789       -1.86962444226546
H            4.24296166207275        1.67195733961732       -3.27856176521720
H            5.74843631355339       -0.22614501683327       -3.66541134837950
H            5.26749040100193       -2.42502331397304       -2.64855631396719
H            4.38040649353937       -4.46684889752652       -1.45101651706668
H            4.80229240101740       -7.06038659818512       -0.98803602278736
H            4.68924234105542       -9.43163933605732       -0.31546218895114
H            2.81874492545558      -10.25314922449070        1.04998943222035
H            1.02544521878745       -8.72231648804045        1.76958837404067
H           -0.94462192392397       -7.68333726729814        0.59956881812885
H           -3.11853772894212       -7.79520625730437        1.75381060619131
H           -8.55463792313684       -7.38310308559913        4.82768292394866
H          -10.30147752329937       -8.90333443718568        3.99387224315891
H           -9.83501092430395      -10.37256784019343        2.07802114419806
H           -7.62529368544226      -10.32087110454648        1.00008177271745
H           -5.88573121767330       -8.79679294773691        1.84145549029774
H           -3.71527780338877       -3.77458502353965        6.50863760040472
H           -4.15406856895864       -2.34969145024904        8.46703305261579
H           -6.35180562256956       -2.42251109702983        9.56789316854015
H           -8.10624380955025       -3.91640795445463        8.71000464231220
H           -7.65731485378539       -5.33712906049192        6.75106839208638
H           -1.98633913720938       -4.51497905236422        4.20477886388359
H            0.19165551512220       -4.40780948171862        3.05718993355291
H            0.12792303400918       -3.24250532730907        0.86834604200331
