86
 energy: -18.428253117895 gnorm: 0.000353968971 xtb: 6.5.0 (97a52f5)
C            0.35491169179741       -2.81396655471491       -0.38736214938228
C            0.32397104246251       -1.42966194628525        0.27506321259151
C            0.29444481315014       -1.55280065501415        1.80478764524365
C           -0.87056267767695       -0.61117198027385       -0.22835461041362
C           -2.22542678445579       -0.85170893741281       -0.12040052568372
C           -3.11430567132163        0.05716677356622       -0.66694762733577
C           -2.65647610720639        1.19428745297349       -1.31448053758838
C           -1.30385710093936        1.44397986294453       -1.42704778208376
C           -0.40675630609719        0.53544070410603       -0.88023860185080
C            1.05885746055423        0.55185653716468       -0.84942362315048
C            1.96116040154180        1.47853801005712       -1.35845776125508
C            3.30861594409213        1.25961687914349       -1.18708680766828
C            3.78457459563359        0.12915392763508       -0.51234292106519
N            5.19075308657231       -0.08209988602900       -0.33508285444873
C            6.08123635095505        1.02650167598706       -0.15731484254450
C            7.37963228866128        0.98120539689929       -0.66229726862150
C            8.23375435205594        2.04571429276998       -0.50880298777787
C            7.82703591904872        3.20166793982934        0.15994846303792
C            8.74321135305652        4.35318973351193        0.31494725500178
C            9.60581300877375        4.72594787314901       -0.71632957183436
C           10.45537959551340        5.80136261934309       -0.57328588568978
C           10.46312329088231        6.52690883737194        0.60121075610648
C            9.61769063794831        6.17328138964902        1.63380770231819
C            8.76626760432910        5.09884973539783        1.49382710334736
C            6.52914594562126        3.24082712402586        0.67320196064123
C            5.67513144047439        2.17610120817760        0.51805139110980
C            5.71521835455581       -1.41815243856637       -0.35517885154903
C            6.68636211291099       -1.81767667891442        0.56165222968829
C            7.19382857787024       -3.09327291809211        0.53848434052351
C            6.75952782547819       -4.02241259677715       -0.41065514261959
C            7.30222775394745       -5.38935807641195       -0.44659910524271
C            7.71962143203005       -6.03270527380018        0.68999837831790
C            8.24312209380756       -7.35482281896157        0.67743102621977
C            8.64760434875506       -7.98191756390208        1.87280450035894
C            9.14527297293678       -9.25342665202222        1.86210291765172
C            9.25970316541014       -9.95161890175312        0.66089654405494
C            8.87580847497047       -9.37130399780256       -0.51613264092130
C            8.35960009470466       -8.06466907861383       -0.54451199933419
C            7.93190501308502       -7.39866543653894       -1.74321801890394
C            7.40974539852766       -6.09548829119662       -1.68985530332544
O            7.06056972238226       -5.64964662476897       -2.94712369283614
C            7.36716307193819       -6.67088174442506       -3.82394531323434
C            7.22000099116433       -6.72808106186007       -5.21693688339868
C            7.61042992109411       -7.85596964239207       -5.88467704534470
C            8.15291264125054       -8.94785898233170       -5.19634672899569
C            8.30532889005753       -8.91931791050974       -3.83574452978682
C            7.90941028685163       -7.77418298304011       -3.12494522816530
C            5.79431152402560       -3.61314994940682       -1.33238810136360
C            5.27581575375514       -2.34273471711905       -1.30114213109541
C            2.86838145045564       -0.79894896620931       -0.01187107990327
C            1.51980942952833       -0.58558990758173       -0.17841888091803
H           -0.52591550915677       -3.39473547392307       -0.11632106071386
H            1.23795420953796       -3.37268009259402       -0.07946847826569
H            0.37662823949907       -2.71885741029303       -1.47239123648061
H           -0.58883138014165       -2.09855204218130        2.13434872938162
H            0.27519033638508       -0.56697327506231        2.26802584810515
H            1.17497286105689       -2.08035538005540        2.16954745223834
H           -2.57477904588429       -1.73570897385368        0.38385992054093
H           -4.17416926425328       -0.12151677416186       -0.58775900446704
H           -3.36378293976902        1.89089409779976       -1.73410580294792
H           -0.93916811927737        2.32404444126682       -1.92692828763406
H            1.60034937585070        2.34928313640299       -1.87695553746162
H            4.02177221355565        1.95915338879230       -1.58635567847159
H            7.70099597067804        0.09895502214493       -1.18752290831407
H            9.23583195254100        1.99071050496881       -0.89768570562175
H            9.59083147225769        4.17123551536564       -1.63858899761440
H           11.11346039182548        6.07829673463800       -1.38075795584926
H           11.12777362153549        7.36827565318066        0.71158724536725
H            9.62480930070470        6.73802970245082        2.55184195438640
H            8.11759319428396        4.81704244947047        2.30512707099452
H            6.19462037251110        4.12752727589976        1.18328251097920
H            4.68026182997687        2.21454877006254        0.92585395170870
H            7.02760717940630       -1.10838948272822        1.29535443924243
H            7.95326113022322       -3.37906438181456        1.24518752822424
H            7.63012914354431       -5.53246171336318        1.63675472458072
H            8.55725409270537       -7.44306017268912        2.80037554543828
H            9.44966912263381       -9.72158913189067        2.78397880287730
H            9.65240771220653      -10.95546318799766        0.66330023348931
H            8.96623155239717       -9.92525038822641       -1.42993549509477
H            6.80634401205816       -5.88226903006896       -5.73615159709969
H            7.50245365986125       -7.90571014492853       -6.95588675254418
H            8.45556181536952       -9.82251828608265       -5.74855270832075
H            8.72767959669730       -9.76318858228985       -3.32494563531842
H            5.46475120188465       -4.31239632797448       -2.08073739705091
H            4.53589769914646       -2.03700429850464       -2.02009509177935
H            3.21811552109719       -1.66925694286380        0.51138098253527
