93
 energy: -19.597789299442 gnorm: 0.000794796063 xtb: 6.5.0 (97a52f5)
C            0.25978069282463       -2.84266523178764       -0.76059047258486
C            0.16864926331218       -1.50284816702413       -0.01723109878532
C           -0.00468087128497       -1.72264887995506        1.49191592968419
C           -0.97000680214099       -0.64271806772503       -0.57673016120759
C           -2.32958457473555       -0.87765298986157       -0.61260684404928
C           -3.16054871799923        0.07373048759159       -1.17740072367066
C           -2.64059659627235        1.24755945685434       -1.70057598481393
C           -1.28268784564213        1.49215656296508       -1.66859452783175
C           -0.44338751023068        0.54092053784174       -1.10307072983501
C            1.01335529688227        0.54085306045460       -0.93574900517383
C            1.96518223632684        1.48710965707183       -1.29814209310100
C            3.29046537744381        1.23887645807589       -1.02320116820371
C            3.69546969646236        0.05817792233218       -0.38920866586913
N            5.07878788998933       -0.19178399548555       -0.11556972320084
C            5.96135399189528        0.89147719076271        0.21822752695387
C            7.28186680771343        0.89239765926229       -0.22485519776883
C            8.12995102692855        1.92893225113646        0.09474089187421
C            7.67631063370626        2.98311317915900        0.86373340517456
C            6.36999224364698        2.99577844530064        1.31304567850634
C            5.52006715554437        1.96032066758446        0.99474607981197
C            5.57342348137447       -1.53693098499778       -0.13528212477662
C            6.50572994521590       -1.96706255786623        0.81702335314148
C            6.95509390744295       -3.26678897297924        0.84358945966488
C            6.47391614407528       -4.16487983430594       -0.10318785035913
C            5.55571551516625       -3.74405850092078       -1.07211163358851
C            5.10643161625411       -2.44495136321214       -1.08950072725585
C            5.20478989783116       -4.92105296316922       -1.98774333106599
C            3.70676916051906       -5.24470824497852       -1.90455999146032
C            5.62503473882191       -4.63088317830398       -3.43489812525167
C            6.04252454275995       -6.06017009963548       -1.39745139929105
C            6.15267296902332       -7.37463567443258       -1.78878432398181
C            6.97740912384763       -8.25075484136018       -1.07761217667597
C            7.08956939452973       -9.66004349559284       -1.48683572590659
C            7.30382137381847      -10.66323021943158       -0.57775650864785
C            7.40727294416455      -12.03116186031301       -0.95228656722864
C            7.62058693688917      -13.03038131574221        0.01809691045396
C            7.71815337923071      -14.34407375784244       -0.34062920739136
C            7.60679536419940      -14.71557371433707       -1.67964563333109
C            7.39863560753563      -13.77041463717099       -2.64496083451363
C            7.29389327356094      -12.40853918778689       -2.31423982285991
C            7.07328131678423      -11.36558501569387       -3.27676151953143
C            6.97018488430225      -10.02530239983043       -2.86790250601004
O            6.76163517481189       -9.19238395207401       -3.94683534150628
C            6.73251145554707      -10.00068325316282       -5.06569337683749
C            6.55388678953339       -9.65735701473473       -6.41287137171360
C            6.56760629913059      -10.64238706370282       -7.36153830183408
C            6.75668336176446      -11.98276407863797       -7.00388524746110
C            6.93206646217296      -12.34557395005053       -5.69532744175519
C            6.92090553913921      -11.35391363667929       -4.70059814225003
C            7.68912364998384       -7.75911603531132        0.02610226548311
C            7.59189917539276       -6.44288755906945        0.41790650972265
C            6.76401197589823       -5.58587545538977       -0.29720335706890
C            2.72924007135498       -0.88395547848204       -0.02821503044888
C            1.40376053886516       -0.64275160964611       -0.30137251415201
H           -0.64336326865129       -3.43308785324311       -0.61113078605610
H            1.10904210227029       -3.42575262318151       -0.40642229722365
H            0.38456964619465       -2.67962525113144       -1.83044353787513
H           -0.91644662663430       -2.28061781150650        1.70165494773068
H           -0.06470215720755       -0.76812921857715        2.01360696329392
H            0.83630958760418       -2.28001747473798        1.90265417584067
H           -2.72701445475629       -1.79017570358345       -0.20377588422833
H           -4.22361686729209       -0.10036336513844       -1.21047679470728
H           -3.30342574220565        1.97716739685141       -2.13629320081191
H           -0.87023047855106        2.40065635956614       -2.07089804481159
H            1.65906229460299        2.39479965234805       -1.78761189600383
H            4.04193650726222        1.95422456763270       -1.30748319979365
H            7.62733584131129        0.07200667946361       -0.82933773433598
H            9.14905796647729        1.91814828337874       -0.25630674476267
H            8.34082926157946        3.79411495052548        1.11350827324308
H            6.01586151775384        3.81689334981794        1.91489520876834
H            4.50474604925714        1.96020222125447        1.35098460736890
H            6.85465731149123       -1.26076317241147        1.54966102602218
H            7.66403776681207       -3.59571638814871        1.58284267005480
H            4.39940939127132       -2.12599566286164       -1.83267307194327
H            3.10814301392314       -4.40794439966370       -2.26270980867873
H            3.41625904524872       -5.45182575907842       -0.87515977601435
H            3.46340775512180       -6.11893946122904       -2.50731232731600
H            5.07318423703281       -3.78232062423235       -3.83755293992186
H            5.43733644535044       -5.49279349657868       -4.07422804092758
H            6.68811276526422       -4.39803570280669       -3.48548200545548
H            5.60809383236574       -7.72862605115336       -2.64425360207853
H            7.37586088482937      -10.41661550490183        0.46536914408232
H            7.70553008494339      -12.74314741661327        1.05198874924219
H            7.88149213428884      -15.09811142447642        0.41172241902163
H            7.68397881198396      -15.75556726227160       -1.95242162326020
H            7.31158109552837      -14.07514814105906       -3.66923397241930
H            6.41180429958526       -8.62478763909611       -6.67709513372157
H            6.43266247933098      -10.38520694551847       -8.39926868933078
H            6.76512387562220      -12.73817035006141       -7.77243476031909
H            7.07851514067409      -13.37742570955878       -5.43943523674408
H            8.34106019877664       -8.42469208770788        0.56422760563238
H            8.14462979175650       -6.07164076224226        1.26288951194512
H            3.02164305450827       -1.78997449568109        0.46895432633605
