84
 energy: -17.747328089396 gnorm: 0.000400742586 xtb: 6.5.0 (97a52f5)
Br          -3.24979043024536        0.43882654245285        0.17785285494752
C           -1.38839227670081        0.10356316205765        0.15730129275021
C           -0.60139660176648        1.22924552628586        0.15295011186514
C            0.80363345765757        1.16592619359447        0.14347724722892
C            1.54542610146417        2.41203286635845        0.14670574761089
C            2.87616313492267        2.55123292643745        0.01863033407130
C            3.60315115335890        3.80352539677836        0.02342041890343
C            4.96752761840525        3.80592281409703       -0.28540494946886
C            5.69129758587475        4.97160991734957       -0.28677352603034
C            5.08796464790290        6.18944276515100        0.02755218001191
N            5.84412478468587        7.40394561045343        0.03114680633942
C            6.92638863322516        7.58516674033892       -0.89617315535795
C            8.09273830357027        8.24119022157793       -0.50989370015532
C            9.12611655239792        8.42145498826715       -1.40174837158888
C            9.01421307822952        7.95111584374918       -2.69580013895095
C            7.86367300867914        7.29910133506538       -3.09474931233589
C            6.82914662244850        7.11739328021267       -2.20457662884207
C            5.52983576446915        8.44956292013636        0.96503637700576
C            5.60228424959690        9.78790249495191        0.58611963196955
C            5.30686095561550       10.78953722992487        1.48344235314321
C            4.93514281549731       10.47401563933470        2.77594526707180
C            4.86063181622826        9.15154671748098        3.16801563244298
C            5.15499241065702        8.14820169976395        2.27229693050360
C            3.72848286384493        6.19078882550808        0.34125206762905
C            3.00081114104366        5.02675783190446        0.33790316747799
C            1.38957122545371       -0.10702920375950        0.14068780932343
Br           3.25115961278724       -0.44194707960466        0.14115754872831
C            0.60257805295106       -1.23265226637196        0.14730268953073
C           -0.80244060748418       -1.16940293418883        0.15490244443862
C           -1.54356362510529       -2.41575529887480        0.16922098544759
C           -2.87652395297677       -2.55559446943283        0.06756994168738
C           -3.60218812935471       -3.80848457934504        0.08546574798129
C           -4.97351545399823       -3.81124417155451       -0.19094082852717
C           -5.69629464159491       -4.97749632712929       -0.17786771717132
C           -5.08474597324126       -6.19559611029893        0.11912431065835
N           -5.83953232536051       -7.41074319119686        0.13887664534829
C           -6.94591222337139       -7.59098962350438       -0.75974327705601
C           -8.10050899562398       -8.24985421739165       -0.34407649899383
C           -9.15709240839533       -8.42964463297148       -1.20839935834871
C           -9.08055100045336       -7.95603935282954       -2.50382783932760
C           -7.94207066963939       -7.30126585918061       -2.93180664720344
C           -6.88442858942499       -7.11996711843901       -2.06913575040886
C           -5.50048588587759       -8.45816402886877        1.06215299795864
C           -5.57762419537561       -9.79555844829318        0.68083074568291
C           -5.25980024439314      -10.79901095449302        1.56840594948493
C           -4.86073661910535      -10.48625580350998        2.85341278329144
C           -4.78084064896277       -9.16473938021253        3.24767004340792
C           -5.09734221737274       -8.15955036250262        2.36161414901632
C           -3.71812749281395       -6.19666233143564        0.40008113725748
C           -2.99160447628655       -5.03207475066305        0.38222574720367
H           -1.08367223328577        2.19306729669539        0.15588806654928
H            0.95314243260663        3.30417752792890        0.23989491824889
H            3.47430931171894        1.66172728246546       -0.10910813891327
H            5.44947935246000        2.87393617475713       -0.52655425913376
H            6.74208164224291        4.95767665539925       -0.51727830779144
H            8.17713556756557        8.59901744250232        0.50130401296684
H           10.02373805863832        8.92985650410412       -1.08963954935708
H            9.82302033294647        8.09376463888064       -3.39370828519137
H            7.77486934478693        6.93349285663705       -4.10474169167215
H            5.92637580904912        6.61981824232494       -2.51301212225258
H            5.88615277073622       10.02718725612775       -0.42376179761736
H            5.36520363919938       11.82117936063587        1.17693132749620
H            4.70451941294341       11.25868509312570        3.47787517064682
H            4.57317397675117        8.90481491749470        4.17703501116780
H            5.10909273055943        7.11674203548078        2.57516198946038
H            3.25301841563061        7.12667053056739        0.57710594164567
H            1.95661676364314        5.05677396582869        0.59267520516204
H            1.08494029206040       -2.19643169330247        0.14657264422844
H           -0.94910823014840       -3.30765186707075        0.24949208972626
H           -3.47794813662835       -1.66642415258048       -0.04608725550242
H           -5.46179545793194       -2.87906034868641       -0.41823112822481
H           -6.75232112569172       -4.96376860393475       -0.38306326783356
H           -8.15723630475785       -8.61022262825602        0.66815509358608
H          -10.04531390339010       -8.94011887083777       -0.87359431941578
H           -9.90757533079781       -8.09828898714618       -3.18014108763974
H           -7.88079092259589       -6.93325420271096       -3.94298273291441
H           -5.99098262486768       -6.62035371653987       -2.40046860174006
H           -5.88312044995883      -10.03254516227769       -0.32326947567624
H           -5.32213628706908      -11.82990289814176        1.26014864469349
H           -4.61299526846774      -11.27237971041364        3.54783345091385
H           -4.47213939840932       -8.92018545939725        4.25093292843381
H           -5.04705953039620       -7.12884249122232        2.66637092202726
H           -3.23651081031134       -7.13273669796531        0.62234107337219
H           -1.94147974487468       -5.06212728364300        0.61128113289067
