56
 energy: -12.453452721693 gnorm: 0.000858590373 xtb: 6.5.0 (97a52f5)
C            0.77436046218520       -0.35891474233613        0.00357955033059
C           -0.42157113088339       -0.55922048025047        0.17653594667416
C           -1.78879807008577       -0.76817172370288        0.35592821892958
C           -2.41829259666186       -1.95907195432326        0.56019913309749
C           -3.82889619897817       -1.84759643919469        0.70810751468858
C           -4.27754654012535       -0.57650187362808        0.61777986649432
S           -2.96823028691595        0.51774264949578        0.34761457806362
C            2.13982868033703       -0.10986746770693       -0.20375541071399
C            2.54589423123510        0.27016277770389       -1.48812390270648
C            2.98265354849846        0.68492095063020       -2.55399686747448
C            3.61119872597269        1.30586621024467       -3.62987071273276
C            3.20244070047212        1.38111590711294       -4.92643675623367
C            4.06013339081266        2.16279456430130       -5.74784567735556
C            5.11840468997117        2.67333205594018       -5.08104406532452
S            5.11176209279853        2.16912351670162       -3.42661858281794
C            3.00067981423736       -0.25490889201637        0.83240411033774
C            4.44200043151793       -0.05102325205390        0.84497335407639
C            5.18613241059479       -0.62167105825921        1.88212013784127
C            6.55087742773925       -0.49524175732278        1.93327537942438
C            7.25102395200894        0.22457454250547        0.96026971925183
C            8.70122309244139        0.26206497157678        1.03410209719208
C            9.57340281602049        1.02755503200511        0.33500363039938
C            9.21776498646977        2.01735979425731       -0.59101437313854
C            8.98226860569930        2.91845270812498       -1.38598680920677
C            8.77437651447111        3.97545721197625       -2.26983617133632
C            7.72311530268977        4.14872946006306       -3.11441789081826
C            7.79450577448965        5.33707528847264       -3.89088661838637
C            8.89967953837396        6.07274745844297       -3.64167114838241
S            9.88221871737431        5.31253325141627       -2.44093182373295
C           10.94457842467847        0.83866386372579        0.56963162802802
C           12.13772984291076        0.64698911850961        0.77048721774864
C           13.49103974448295        0.39917722643545        0.99900155611888
C           14.47801205929280        1.31933144539362        1.18715859227423
C           15.76438413377863        0.74945296856617        1.39891167941938
C           15.76230025302367       -0.60129721191694        1.37272145447898
S           14.16983303251756       -1.20596266152630        1.08537637017447
C            6.50556450338617        0.82203183969367       -0.06016729022685
C            5.14091658256693        0.68580773357921       -0.11745116226716
H           -1.88834356971017       -2.89844986440182        0.60328450405471
H           -4.47409778784226       -2.69796213869361        0.87552586016417
H           -5.30318414239827       -0.26963269811523        0.69982359114859
H            2.29591702523598        0.91574989293169       -5.28195854972780
H            3.87315458136904        2.33897687941287       -6.79724087288830
H            5.88047933600805        3.29531173802551       -5.51083914645580
H            2.57253139084262       -0.58989572731041        1.76216374761566
H            4.67254630122214       -1.18746901621482        2.64059356244053
H            7.10137997390253       -0.96243503655797        2.73194215858531
H            9.13955003705970       -0.42207665276615        1.74134270319841
H            6.90894510105045        3.44710393500273       -3.17526583229773
H            7.03617133780755        5.62269148051457       -4.60550399204905
H            9.14852250988522        7.00451365786858       -4.11362171641417
H           14.29331678331357        2.38274768686225        1.17546601570443
H           16.65290721444223        1.34164007657738        1.56406317741517
H           16.62234454394799       -1.22929067379019        1.50976308443063
H            7.01195581169152        1.37773655947608       -0.82695621136535
H            4.60743389332062        1.14680686813835       -0.92551855606886
