78
 energy: -15.977787961467 gnorm: 0.000549066411 xtb: 6.5.0 (97a52f5)
C            0.09691052339636       -2.39690019636053       -1.65302724516451
C           -0.07052683730983       -1.58021577910973       -0.36418843432380
C           -0.37233851535564       -2.49357202904130        0.83239066820808
C           -1.16603941269637       -0.52129774269852       -0.52931659836217
C           -2.51433244408148       -0.66543311958020       -0.78444160527106
C           -3.30345142652066        0.46611923089045       -0.88328418658428
C           -2.75370438378233        1.72853921820129       -0.72927294311297
C           -1.40722698809744        1.88334127139768       -0.47343378176538
C           -0.60993181099489        0.75119496561541       -0.37324005061155
C            0.82426401566633        0.62421765293855       -0.10423344607815
C            1.78780792939546        1.59914426798589        0.12407031106075
C            3.08234119414344        1.20996194519774        0.37346760653884
C            3.44688981272445       -0.14281508974381        0.40254966500903
N            4.78903469078665       -0.52673506260969        0.67367079119608
C            5.70955139184232        0.11811947772360        1.52777114697693
C            5.50090559973094        1.14728961224229        2.44011754689133
C            6.54704059087791        1.57847499503040        3.21875862557715
C            7.82274188092011        0.99823832395707        3.12340659948939
C            8.91734383084559        1.42417680486068        3.97494739970045
C            8.88603026071954        2.40654713489331        4.93423598507142
C           10.09714847826693        2.57000111924219        5.62834773944881
C           11.10135876015165        1.72387393010837        5.22693092646419
C           12.43123412355318        1.59760190997624        5.71931496682278
C           13.04629662034140        2.23601692513111        6.75023584192027
C           12.56437083310473        3.26045756727778        7.69103197863565
O           11.48452686805448        3.81383686839921        7.72969113136163
C           13.66537161842344        3.52464467589647        8.63094264617308
C           13.72445203531788        4.39001132418231        9.70858244175704
C           14.88691824910497        4.45209610284092       10.44690605080701
C           15.98958348472890        3.65935272855288       10.12422507941625
C           17.24249145543232        3.73332306967839       10.93137771074711
O           18.31086442149383        3.83694312550229       10.35528082262914
O           17.11128761844082        3.66662433957550       12.28866861251175
C           15.92743308220489        2.80301311380854        9.03309994126358
C           14.76302981556880        2.73932895730749        8.29540533758882
C           14.43029815551250        1.92288136113893        7.12085116847577
O           15.16235327278292        1.13065995442892        6.56227915170304
S           10.50936662414068        0.71929513128161        3.92977877007612
C            8.01684410205628       -0.04303673759039        2.20671800983359
C            6.97500245857307       -0.47797085099249        1.42496780401265
C            6.93621741775141       -1.59949925863674        0.41425838573172
C            7.76966656188006       -1.32011280745529       -0.86516433236416
C            6.86637790276304       -1.67688240452072       -2.06251221805392
C            5.41436942240862       -1.49027275634967       -1.57780030019119
C            5.43294012137445       -1.66286561626354       -0.04139597198680
C            2.47250665153063       -1.11344268327189        0.14861202324819
C            1.17488893475503       -0.72972434368947       -0.09422841533805
H           -0.81018920755175       -2.95508106533676       -1.87990364255598
H            0.91755725404358       -3.10656147850156       -1.55946080456777
H            0.31081642577613       -1.74138396467979       -2.49603119092590
H           -1.29362253107318       -3.05181736787326        0.67324702352265
H           -0.48538074471211       -1.90602730981411        1.74246059463705
H            0.43451599257560       -3.20783125808186        0.98951950074489
H           -2.93639563775804       -1.64790397168846       -0.90203469563128
H           -4.35764646297717        0.36397402612189       -1.08141757058554
H           -3.38430199445631        2.59867404712168       -0.80909641766650
H           -0.97206377336085        2.85922367661453       -0.35066700956065
H            1.51458925864200        2.63909045418632        0.10074477019412
H            3.84631919955345        1.95342900582817        0.51350150968779
H            4.51964601502253        1.57019058439116        2.55486387460115
H            6.38261734314760        2.36951775071597        3.92788669842866
H            8.00885793195381        2.99500807151416        5.15128077728710
H           10.22948207992864        3.28750801267691        6.41814821709873
H           13.03483781351608        0.86749789425142        5.20597780169562
H           12.86987859096936        4.99685303165053        9.95175592106279
H           14.95849598180539        5.13166261522009       11.27823502731372
H           16.17776591135664        3.53240574462188       12.54574073541645
H           16.77482461524886        2.19902992590601        8.76387892639090
H            8.97929061529895       -0.51235619500382        2.12566206982490
H            7.24159052481656       -2.54414544079749        0.88735014960869
H            8.70850280683355       -1.88638415282131       -0.87091617469518
H            8.04267406256146       -0.26014098146586       -0.89210532880757
H            7.03478528734165       -2.71577721822858       -2.36893977806838
H            7.08623899377585       -1.05310894903414       -2.93788856292600
H            4.72330230642678       -2.19246103042321       -2.05827162282263
H            5.05500402803698       -0.48399979355572       -1.81526311803419
H            4.96392883943811       -2.60456912517554        0.27421898876057
H            2.73012948189197       -2.15534616568076        0.16819997342579
