32
 energy: -6.384186790955 gnorm: 0.000294004497 xtb: 6.5.0 (97a52f5)
C            0.85025847296276        0.04126281094513       -0.02904856189974
C            2.38394061796120        0.02231617103204        0.00687801845644
C            2.90657818642548        0.04325915214478        1.44916791500132
C            2.96302867048126        1.19285710327350       -0.80048030074500
C            2.83762028479543        2.55623016276779       -0.62510661331562
C            3.47238458791527        3.40783679017508       -1.51252799541074
C            4.22444543593368        2.90621399646924       -2.56405882873823
C            4.35664154760469        1.54480247359413       -2.74874870221477
C            3.72180091891283        0.68646802249740       -1.86135682503001
C            3.69033617843705       -0.77182584822959       -1.81565262288517
S            4.34024451480207       -2.12073168427854       -2.72070431329840
C            3.57143067678286       -3.27959627942063       -1.64496100874218
C            3.60690275033743       -4.66827287943211       -1.69424295471395
C            2.92913449676914       -5.39325756816404       -0.74421767513616
C            2.20927510476398       -4.74938406692755        0.26405399143378
C            2.16321904881806       -3.38039555600332        0.32720561883873
C            2.85073501414679       -2.62585296165665       -0.63669317944556
C            2.93552928380891       -1.18927544840027       -0.75933523114891
H            0.46148015696700        0.93964080539205        0.44901685640486
H            0.43652687406972       -0.82351923862436        0.48775034055693
H            0.49109551021542        0.02338117349940       -1.05748713472852
H            2.57486845119133        0.94097650839057        1.96960361259959
H            3.99589013529126        0.02823154730200        1.46198546837833
H            2.55069720244950       -0.82207674928020        2.00649167325767
H            2.25276214258940        2.94030353459048        0.19234801525162
H            3.38072445048900        4.47400038344043       -1.38404494423309
H            4.71131094952232        3.58589444597002       -3.24428187830895
H            4.93756125253630        1.14174569438236       -3.55960008092530
H            4.16447619624802       -5.15600035898579       -2.47506179625652
H            2.95271333548681       -6.47026878482330       -0.77663773785487
H            1.68453168060232       -5.33629917404310        1.00008266555563
H            1.60969587068269       -2.88028417759694        1.10189420929681
