102
 energy: -22.611532375461 gnorm: 0.000546573068 xtb: 6.5.0 (97a52f5)
C            1.27203104854841       -1.09838551912341        0.84483617910852
C            2.81170300984488       -1.06367424120498        0.80874634113021
C            3.36871542941677       -0.82623207459034        2.22386613762958
C            3.26840664057448        0.10021283700866       -0.11184843081307
C            2.84747906513371        1.38948726018695        0.17949492699529
C            3.20185364207837        2.46450465344788       -0.61055725311459
C            3.99289211597932        2.27118755294284       -1.72182123732184
C            4.43025356409093        1.00583295752357       -2.03166655860138
C            4.08873250810425       -0.08440027945251       -1.24110331348796
N            4.55231806606886       -1.39482916057433       -1.58040060081542
C            5.34049183689322       -1.98965675746283       -2.59649148718537
C            6.03272964517070       -1.22621934591212       -3.65126770275126
C            5.61253255816036       -1.30131964707490       -4.97997559598165
C            6.22841410790964       -0.55118642986074       -5.95131862226711
C            7.28959517613691        0.29190794193638       -5.63173992705778
N            7.91060595553770        1.10386689742434       -6.64067985967941
C            9.29793734975586        1.22791263885125       -6.87472855798523
C           10.38855162031146        0.59102044176281       -6.28220106653909
C           11.65134118683942        0.89976398022781       -6.71876978524688
C           11.86726507045805        1.83654540786086       -7.74579699755591
N           13.20671905000829        2.14004830231434       -8.17635787049295
C           13.77368716765125        3.42681588566859       -8.26831678661881
C           13.24444609631029        4.68273142251840       -7.97007880462083
C           14.03484440581092        5.79157426098971       -8.14706199301314
C           15.34766506076764        5.67421027028225       -8.61492562555592
C           15.88673510675382        4.44489015746940       -8.90819652003473
C           15.09576890613493        3.30744004140934       -8.73191441208530
C           15.35359386101299        1.90199016207149       -8.93444541415785
C           16.47821492657021        1.20665874410883       -9.38417653514110
C           16.41045604092201       -0.16209224546922       -9.48276375249415
C           15.24168669022000       -0.85131630475284       -9.14372736084951
C           14.12865181652938       -0.18163281660770       -8.69822937750176
C           14.18122713306728        1.20801715546482       -8.58602041705383
C           10.78869833739688        2.46627831120061       -8.34019219586028
C            9.50142973232661        2.15939785397552       -7.90718745506621
C            8.20230882107779        2.63006554773662       -8.32446007473661
C            7.81041672733840        3.55975046106362       -9.28419041531714
C            6.46367797769885        3.82592183109160       -9.45286326740012
N            6.03566605955675        4.78980775484125      -10.43249619875287
C            5.10111927375893        4.56887041957339      -11.46355025289654
C            4.38823354951508        3.42413629618375      -11.82044332303513
C            3.53818499162993        3.48446151154107      -12.89723310980045
C            3.38509601993195        4.66601405923889      -13.62976048134508
C            4.08283470259854        5.80138109963269      -13.29493331529343
C            4.95167169528264        5.75596712726769      -12.20233951001621
C            5.81934720353435        6.74341427194890      -11.60612577730875
C            6.07034853712074        8.08353101595583      -11.90892136809872
C            6.96228501098376        8.77980892747608      -11.12940130630836
C            7.60880193799996        8.16582752705324      -10.05177755247263
C            7.37350463569477        6.84886761423876       -9.74212361576815
C            6.47384404185196        6.12576143388300      -10.52563433283803
C            5.51351735176783        3.16032381792911       -8.65721323955271
C            5.88729460988180        2.24280720488039       -7.70911964429965
C            7.24414932445722        1.96664666522841       -7.53895799879686
C            7.72398082543021        0.35268053312014       -4.31030126009480
C            7.10767868958883       -0.39277968903782       -3.33627663561345
N            5.38493995399591       -3.31135996160750       -2.48690407780771
C            4.64231541081798       -3.62871500363946       -1.38485646369907
C            4.33268062482599       -4.85079758782832       -0.76877476677106
C            3.53974435877134       -4.83858447356473        0.35268378733317
C            3.03308063669140       -3.64275486004773        0.89052881591753
C            3.31264730810994       -2.42358947303526        0.31231326702489
C            4.12341402144788       -2.45262049275058       -0.81877235975796
H            0.86034396999567       -0.16522823828738        1.22558126570225
H            0.91234544142700       -1.90291845190223        1.48458618983716
H            0.87197836706802       -1.26006393136971       -0.15547212226402
H            3.01412401486447        0.11686457811734        2.63678876851399
H            4.45753425449049       -0.79708975757014        2.20398668374204
H            3.06559276975585       -1.62214542315273        2.90272287126804
H            2.22836543714099        1.55736862833612        1.04342803262140
H            2.85784718763657        3.45468556737084       -0.35963020228229
H            4.26878751350430        3.10729722702369       -2.34362473439922
H            5.04434694099433        0.84886526552092       -2.89837653806906
H            4.78793365772285       -1.94644492251164       -5.22924994902336
H            5.90224564808095       -0.61008113320424       -6.97494946738471
H           10.22674644453743       -0.13116929592026       -5.50227955107605
H           12.50780298459797        0.42868473715997       -6.26939878969709
H           12.23657575760629        4.76468486467726       -7.60450503763562
H           13.63886253483823        6.76810093020108       -7.92117660666934
H           15.94494461098319        6.56168765413502       -8.74505908516240
H           16.89658652461861        4.34589981587083       -9.26540925357249
H           17.37210131537698        1.74444548009118       -9.64668889193999
H           17.26906815691700       -0.71372403244561       -9.82892848182277
H           15.21494555743106       -1.92484772809961       -9.23482299423944
H           13.22464989940915       -0.70454655851195       -8.44235173763064
H           10.94261738872154        3.17529386380888       -9.13166425618326
H            8.54263411717408        4.06206908392434       -9.88783587971500
H            4.51612102451201        2.51786288134312      -11.25611480938131
H            2.98026986696407        2.60800117112404      -13.18345037283390
H            2.71095374559070        4.68424898757624      -14.47031565941658
H            3.97321707952813        6.71287803482692      -13.85560213161913
H            5.56605752304236        8.54974954133674      -12.73687726209616
H            7.16528348886179        9.81528024461461      -11.34838429027352
H            8.30089334108511        8.73684219469072       -9.45474104203721
H            7.86148761122851        6.37156752955114       -8.91128560527278
H            4.47356343672094        3.39582129779623       -8.80040614252585
H            5.15900495852464        1.74636343664725       -7.09346218055218
H            8.53778225523445        1.01075930773082       -4.06069995526405
H            7.43933391301788       -0.33532600784711       -2.31381333065995
H            4.71795950510037       -5.76705888381708       -1.17858850276355
H            3.29723471510536       -5.77106861968901        0.83512202884994
H            2.41575881064729       -3.67739323221926        1.77104143237003
