62
 energy: -13.391611012863 gnorm: 0.000705845010 xtb: 6.5.0 (97a52f5)
C            1.27207552197839        0.23110726034043       -0.09689382286282
C            2.80589949213998        0.12698070021154       -0.19869818703018
C            3.43576324668313        0.21243293213777        1.20298595390768
C            3.33669937361223        1.30515312764047       -1.05928292943115
C            3.03449403697180        2.60377694076019       -0.67649650254040
C            3.45252495296947        3.69349657611270       -1.41338722829643
C            4.18982426440190        3.50605384058433       -2.56193688129076
C            4.51246933535141        2.23112934710510       -2.96077045856940
C            4.10762537372943        1.12526107481034       -2.22366930352746
N            4.44979321397150       -0.19480886954645       -2.65764431663047
C            5.16539511604602       -0.78889636901159       -3.72637562810761
C            5.92295574362725       -0.03121425239860       -4.73858424381749
C            5.54676577348294       -0.06259583458267       -6.08155473760656
C            6.25265272593237        0.64616362644857       -7.02248138569777
C            7.36351817081883        1.40139262374999       -6.65704787065878
N            8.10972620902245        2.13077935597494       -7.64524791778481
C            7.57945410498186        3.01811467153926       -8.60601020894255
C            6.27019279449952        3.44119568520098       -8.83458548661741
C            6.03206675891040        4.33405429492306       -9.85082285189489
C            7.07624762816472        4.81760308694427      -10.64499341933847
C            8.37294854381521        4.41730970400472      -10.42884740780765
C            8.63078893149200        3.51139681450134       -9.39825097888539
C            9.85101518367452        2.90904949032587       -8.91564453874628
C           11.18135056445153        3.02221743557202       -9.32420878173301
C           12.13826038177053        2.29037373457277       -8.66290941775165
C           11.79300729016771        1.44492135767582       -7.60430480765366
C           10.48873576532842        1.32403065804339       -7.19113121989198
C            9.50557295603721        2.06713625031572       -7.84427609734254
C            7.74618343953077        1.42724585985614       -5.31898335156596
C            7.03988966796752        0.72315973496477       -4.37529256704245
N            5.08240360356331       -2.11307246249246       -3.71016136567991
C            4.32763627551112       -2.43593353297231       -2.61792709924911
C            3.91505929005387       -3.66399132752661       -2.07937223230796
C            3.15062665754668       -3.65708962819517       -0.93834721034919
C            2.77457603562868       -2.46019844965786       -0.30457753739665
C            3.15671082523012       -1.23485805753761       -0.80594202778965
C            3.93367434834854       -1.25893984693161       -1.96073087652899
H            0.96481399497130        1.16714578693069        0.36630569626146
H            0.86217943728027       -0.58195310681127        0.50043081042291
H            0.82138888024250        0.18105330517435       -1.08742814859549
H            3.18995355687037        1.15421134288978        1.69123894746832
H            4.52076170892295        0.14000519227183        1.13727619837518
H            3.08225686767692       -0.59658543443144        1.84077746002486
H            2.45851966471891        2.76727424258271        0.21758381921642
H            3.19858901463568        4.69073760611351       -1.09278292400353
H            4.51290832009411        4.35418239265514       -3.14343990399743
H            5.08238786039160        2.07880799700537       -3.85799705891957
H            4.69024565769537       -0.64771871254718       -6.36825792006060
H            5.96495528319058        0.61420675901400       -8.05874748686527
H            5.47333535142434        3.07314081267892       -8.21352136866786
H            5.02508036963435        4.66818781149350      -10.03975164245550
H            6.85991920761700        5.51603266404829      -11.43666880645894
H            9.18236865836717        4.78713271063702      -11.03316232170399
H           11.43818591985463        3.67067503926597      -10.14312109571234
H           13.16942132181824        2.36447316690002       -8.96711566937326
H           12.56274522318672        0.87786412268393       -7.10696836165103
H           10.21505764334687        0.66820200503318       -6.38423011216090
H            8.59950176387450        2.01734610049054       -5.03380411564902
H            7.33908604792127        0.74496663593423       -3.34153549402063
H            4.20157591234035       -4.58111053365693       -2.56176061534238
H            2.82974838482270       -4.59459160800401       -0.51498994075844
H            2.17898035167129       -2.49893385181499        0.59059499908264
