56
 energy: -11.699411168215 gnorm: 0.000687627292 xtb: 6.5.0 (97a52f5)
C            0.96722807044800        0.05094168056561       -0.00897501011243
C            2.50852772418188        0.05565913688638       -0.07007131602241
C            2.98405552616047        0.09555671219565       -1.53738771970147
C            3.02017093153754        1.31551432657567        0.64076142618640
C            2.64450146264302        2.56465329223284        0.17013848529781
C            3.06803469956392        3.72598072909193        0.78249230464379
C            3.88194847582627        3.65642996565334        1.89074289954811
C            4.26605450339387        2.42971765613253        2.37477858953698
C            3.85267661185800        1.24664083810295        1.76454513900266
N            4.26280131118683       -0.00355120119946        2.30217258266434
C            5.10381979437540       -0.03327414747991        3.46597647890891
C            6.43897766829331        0.38620637519011        3.38313896093758
F            6.93405074316715        0.82001979283035        2.20015536805324
C            7.23608374588764        0.35124267374602        4.50297429522568
C            6.73962674695355       -0.09984052883707        5.72070438432183
C            7.58702680476369       -0.13768929127494        6.90376716699859
N            8.85938841032490        0.26517444291455        6.93930575144875
N            9.30807551371531        0.08943774167608        8.14530014914083
C            8.32560478499194       -0.42857354039231        8.88612812169955
C            8.44347312691058       -0.77793810440843       10.29664237745785
C            7.35651815137804       -1.31851942677868       10.97448082394620
C            7.45952334483585       -1.65430746505257       12.30571966434498
C            8.64881545135801       -1.45525481722962       12.97921588767153
C            9.73606622451296       -0.91902517654828       12.31742576235261
C            9.63577376305292       -0.58221017046921       10.98638866551397
O            7.20488900418823       -0.58681509100236        8.12933741325087
C            5.41660543760482       -0.51783087631328        5.79822022244164
C            4.59858784397162       -0.48696664740290        4.69278243130136
F            3.30737171978044       -0.88504138495871        4.77936694778944
C            3.85421325535607       -1.22510175101808        1.70150247963927
C            4.30149586632550       -2.43594249889004        2.22751274275003
C            3.93544667615046       -3.63665357822417        1.66986390368521
C            3.11202530673587       -3.65140576693195        0.56651295166477
C            2.66518257303889       -2.46180245789131        0.02963580036531
C            3.02354544480324       -1.23797584987822        0.57439116007338
H            0.54793547806746        0.94103124694970       -0.47445050485652
H            0.62980909855722        0.02230570241834        1.02626465201150
H            0.55219467915193       -0.81489137174025       -0.52163848122608
H            2.62309575166629        0.98602308679323       -2.04859310793590
H            2.62857834459857       -0.76877452281545       -2.09516778290011
H            4.07225564477421        0.10023077064069       -1.58225959493371
H            2.00467528478540        2.63260203345603       -0.69204755507262
H            2.76170137487956        4.68406839851642        0.39574518903600
H            4.21580717213456        4.55956374424044        2.37487309722758
H            4.90132663803623        2.37455151984396        3.24063411017216
H            8.25657541059067        0.67664438595081        4.42887491823977
H            6.43473011425461       -1.46920920006513       10.43921554580834
H            6.61178826029079       -2.07242269796303       12.82305565059888
H            8.72877626709445       -1.71880631671476       14.02105916898895
H           10.66384478708948       -0.76520904959346       12.84344929629960
H           10.47764900151161       -0.16451274133475       10.46234871837595
H            5.02373512457155       -0.86625875787187        6.73524427457395
H            4.94489248804286       -2.42315148922473        3.08905853754834
H            4.28952805162736       -4.56214137689588        2.09362726074907
H            2.81895193892385       -4.58876644593882        0.12293318954904
H            2.02301237007065       -2.48721251026496       -0.83312387427394
