72
 energy: -15.275804516887 gnorm: 0.000407649061 xtb: 6.5.0 (97a52f5)
C            1.41078713840925       -0.24380914549061       -0.56621139490142
C            2.91945950064428       -0.17659770241193       -0.24719588054610
C            3.73885308577821       -0.20669405634672       -1.55168488216700
C            3.20686822756413        1.14640397274917        0.47417331425231
C            2.87985828636410        2.34430541929446       -0.14356022916124
C            3.13033022212662        3.56073643301056        0.45739593565845
C            3.72175194772662        3.59980114244239        1.70022465732466
C            4.05880064698590        2.42529916792365        2.32803793307138
C            3.81318613727485        1.18678826213059        1.73596050975201
N            4.21729846242749       -0.00699913376702        2.39754297859981
C            5.04085272771983        0.07864608939136        3.58086268211101
C            4.50627155137270        0.53904895844012        4.77403205384427
C            5.28274356654415        0.70381183582478        5.91149388779285
C            4.67262354265462        1.17959755920293        7.08115452264998
N            4.14596935099961        1.57476605888021        8.03810819749126
C            6.65438969381711        0.39750272146181        5.85290422823943
C            7.50046563883705        0.54910457467663        6.96097360294343
N            8.21938715194276        0.66512371219202        7.86592156971825
C            7.18812396338582       -0.08015788595595        4.66504641717348
C            6.40982172015285       -0.26614017653043        3.53313560068340
N            6.98136913748037       -0.84305263799319        2.33871382458317
C            7.29954754329030       -2.23056462415644        2.31138369034821
C            7.28607158946150       -2.96967296856587        3.49394666186730
C            7.53272086190242       -4.32106728461284        3.49811037079592
C            7.79685643039247       -4.96717544581513        2.31126177934908
C            7.81538250997114       -4.25165829464339        1.13169334150702
C            7.57662376040072       -2.88570332802226        1.10487465259960
C            7.59573196668203       -2.14246724024748       -0.23740998843181
C            8.96679073969569       -2.37478133320807       -0.90676658689733
C            6.47231591629792       -2.71029303847488       -1.12465157983861
C            7.37825583240629       -0.63178255613183       -0.07889055759220
C            7.44620284926776        0.19265713508323       -1.19210267265494
C            7.27136923546258        1.55803070151615       -1.09245484560398
C            7.03287080749507        2.12963346284977        0.13769651845074
C            6.95966359919728        1.33130614218103        1.25328585208981
C            7.10980457282686       -0.05083425528622        1.16635407313746
C            3.88805904622081       -1.27910155620962        1.85734719316004
C            4.16609143954544       -2.42951343862080        2.59198313885444
C            3.90444270782290       -3.68063408426036        2.08858740761576
C            3.34087706413685       -3.80537925227028        0.83816077255918
C            3.03474792640206       -2.67488099585831        0.10803221698393
C            3.29288938552486       -1.40254545164300        0.59610816301897
H            1.09525623216470        0.59667330690270       -1.18155105965192
H            0.82804154613434       -0.22407827464855        0.35377935410439
H            1.15741451814463       -1.15500223652856       -1.10484086411845
H            3.47994044155251        0.62696687647359       -2.20216196303409
H            3.56730119403025       -1.12670175862513       -2.10781902547463
H            4.80208243198605       -0.13841756529425       -1.32903641813516
H            2.42539105050687        2.32767040829082       -1.11858398384147
H            2.86567720192592        4.47708282645592       -0.04428172391483
H            3.92236869794027        4.54591977928241        2.17586134310258
H            4.53235726711464        2.45941767380191        3.29208118616474
H            3.45966055521019        0.78035496715399        4.81362430652592
H            8.23459843766095       -0.32114063660621        4.61998835239278
H            7.06506527169735       -2.47149801380307        4.42000373475606
H            7.51444856752244       -4.87292446797136        4.42371462623264
H            7.98603033393631       -6.02809314521620        2.30407571372363
H            8.01206513650881       -4.77054637732047        0.21000275451376
H            9.16113079640241       -3.43467376938930       -1.05988736631366
H            9.76532666044023       -1.97376603832711       -0.28407732225914
H            9.02283988696300       -1.89046412751979       -1.87982956128622
H            6.59648731139610       -3.77953938079581       -1.28722065216498
H            6.45237715808986       -2.22568992344697       -2.09933871774747
H            5.50606999007365       -2.55472770714675       -0.64930557710702
H            7.63277593601258       -0.24123109105810       -2.15878468025490
H            7.32525104764309        2.17567451084540       -1.97387486560052
H            6.89955690534160        3.19549890434793        0.22427294068827
H            6.77649700455680        1.77165541252279        2.21700369757797
H            4.60361817198463       -2.32593918825440        3.56861881703951
H            4.14451191198143       -4.55828952987954        2.66598476836186
H            3.13718435651624       -4.78285830234054        0.43279574793218
H            2.59226649395233       -2.78593059461988       -0.86637269267923
