53
 energy: -10.761381163726 gnorm: 0.000569983982 xtb: 6.5.0 (97a52f5)
C            0.85637542719053        0.03805454475077        0.00063905655594
C            2.39816826440747        0.03325999441777       -0.05074965091031
C            2.88220057077779        0.04840930026371       -1.51552720600078
C            2.91156196800928        1.30167663384346        0.64480857489079
C            2.54772175267820        2.54685868197364        0.15419317652547
C            2.99380917491331        3.71371279173472        0.74044656368662
C            3.82339582619036        3.65515274907514        1.83819571940381
C            4.19677570811253        2.43238572208043        2.34103085005114
C            3.74990698299930        1.24444132359796        1.76478767625836
N            4.16432593626052       -0.00006362043020        2.31166749166914
C            5.04321701084569       -0.01505460450227        3.45911931652708
C            4.56993696277398        0.30993940824771        4.72680587513179
C            5.43379343207036        0.30297724652392        5.78772647905158
N            6.72669360971412       -0.02225364954133        5.61925185548728
C            7.24018163166954       -0.35537247743402        4.40259517768188
C            6.38274266956185       -0.34666544219811        3.31265687253708
C            8.64895725023725       -0.70979221477333        4.28875592063183
C            9.24339255763042       -1.04797654860384        3.07492505724602
C           10.57442427518838       -1.39260140443298        3.00403493476894
C           11.34858378537434       -1.40946594506373        4.14802259473023
C           10.78886539457898       -1.08189640343880        5.35780950403566
C            9.44205999879219       -0.72810826021865        5.45499416502967
O            8.93083512497949       -0.41423030542989        6.68910339906674
B            7.56005377105785        0.07982936570826        6.90537497285509
F            7.59559909108069        1.41418016879382        7.27161251976858
F            6.93314936311278       -0.67960652410732        7.87829498818193
C            3.74375570811699       -1.22868227148299        1.73475003156878
C            4.16106641465837       -2.43274532129582        2.29952945731535
C            3.77147623672389       -3.64099973701007        1.77432033130820
C            2.94959755054146       -3.66854593138097        0.66955228501528
C            2.52333632262579       -2.48533624664852        0.10164889736671
C            2.90428381597376       -1.25430420712849        0.61440440713614
H            0.44553677233154        0.92402458970939       -0.47998768362143
H            0.51210532739420        0.02614445547215        1.03390533464224
H            0.43891254638119       -0.83201205706139       -0.50274590399646
H            2.52973165675925        0.93347273451992       -2.04192993273533
H            2.52422940815477       -0.82251399054828       -2.06148250714614
H            3.97067245040181        0.04527428427201       -1.55430491129568
H            1.90346702386358        2.60758170873728       -0.70515036085519
H            2.69588712739539        4.66860230235898        0.33945088219285
H            4.17768290578956        4.56220393683637        2.29971407992096
H            4.85030784010877        2.38420567644172        3.19341938668706
H            3.53272201349922        0.56512750231691        4.85455593829323
H            5.10254426043403        0.56003523879324        6.77969306454305
H            6.73610090924474       -0.59398169703291        2.33063633988172
H            8.65910713349375       -1.04387216467967        2.17296909366267
H           11.01374320672948       -1.65186791834611        2.05476203158540
H           12.39015797119027       -1.68003829429616        4.09057524064259
H           11.37966530107278       -1.09081601131725        6.25649177576074
H            4.79775025573509       -2.40881551832007        3.16562701391103
H            4.10650989418322       -4.56108882678197        2.22424561601803
H            2.63871903988686       -4.61186391021039        0.25136849176277
H            1.87934336710123       -2.52181885675266       -0.75927428442486
