53
 energy: -11.757368249736 gnorm: 0.000772455266 xtb: 6.5.0 (97a52f5)
C            0.91947393165226       -0.36758131826269        0.53461072906854
C           -0.29739364595390       -0.48012103429080        0.43925759075259
C           -1.68159732043949       -0.60502395484969        0.33836556249764
C           -2.40128800362997       -1.76176416437731        0.31585353404204
C           -3.80596050796702       -1.56454240330709        0.20678930792837
C           -4.16033549767523       -0.26239065584828        0.14577453607160
S           -2.76682836139289        0.75611784026284        0.22108817154166
C            2.30950569147563       -0.25059641778788        0.64924941649365
C            2.99243396053729       -1.27080969783018        1.31806595588336
C            3.58826995483796       -2.15918837911974        1.91594866810247
C            4.28832888505092       -3.15257259531025        2.59621233465923
C            5.31968933634311       -2.97403429414328        3.46821606640787
C            5.83325760930117       -4.18546080199862        4.00871618999566
C            5.19900508062835       -5.28690337098010        3.55104875598479
S            3.94918778601629       -4.85646293043983        2.43880089331081
C            2.91586144430577        0.84394091693014        0.11435563366225
C            4.30866780684943        1.15547292570259        0.11144422880107
C            5.36391665871470        0.42121431533119        0.60867340981542
C            6.61794412721812        1.02095889640837        0.42719271597217
C            6.57476677222840        2.24056671292341       -0.21464232078988
C            7.71960835268368        3.03616856871532       -0.52011248836371
C            7.71509409640010        4.24528576362905       -1.14233447708254
C            6.53962225548991        4.87469677950489       -1.56393360769443
C            5.48823130739299        5.39899672642416       -1.90963787308216
C            4.25360870506789        5.93409725400615       -2.26899326726717
C            3.04308278306282        5.33433804913786       -2.09329601941074
C            1.94161626558913        6.10850044131704       -2.54963813080501
C            2.30764118206696        7.29849217065572       -3.07394623322353
S            4.02437162870303        7.49280805242861       -3.01775775625596
C            8.93375493912925        4.89316739033295       -1.37689448063079
C           10.00497702643790        5.44967198273642       -1.58950477839732
C           11.23108121063339        6.06670511613182       -1.83119709432502
C           11.45615321380886        7.39449685948903       -2.03789706126004
C           12.82322802279186        7.71956923697662       -2.26113128405951
C           13.64149376289032        6.64544163026287       -2.22517707586837
S           12.74427862727333        5.20205625396740       -1.91394057370000
S            4.91653150274538        2.63044843083602       -0.58270042907158
H           -1.94034345713517       -2.73594083524131        0.37652669444835
H           -4.51602481472886       -2.37833067663085        0.17593939904268
H           -5.16478835040496        0.10730181905355        0.06107842207557
H            5.70493920979648       -1.99859800011139        3.72371658666729
H            6.64902448338390       -4.21725702160168        4.71634482738055
H            5.42605967654861       -6.29855798008546        3.82976220860701
H            2.27797772130722        1.56679985045904       -0.36536220453469
H            5.24008189949194       -0.53362360565288        1.09077081632756
H            7.54151462049151        0.56973402928234        0.75597092572936
H            8.67507421753591        2.63452312554534       -0.22951734267789
H            2.94421224625223        4.35841319801318       -1.64390625820299
H            0.91629811899524        5.77465691508634       -2.48172495128680
H            1.63769307562557        8.03490149108199       -3.47596709461615
H           10.66391889495765        8.12758851190649       -2.03212104210720
H           13.16878907344530        8.72713553064065       -2.44187503492153
H           14.70540279331009        6.66658335190836       -2.36839470309208
