92
 energy: -19.645579344136 gnorm: 0.000606457312 xtb: 6.5.0 (97a52f5)
C            0.26466613795138        0.69590598497272        1.32236221243938
C            1.68134231788282        0.24017351928989        0.91805838641255
C            1.66498169406409       -0.33487289343586       -0.51311738852690
C            2.60863410693896        1.46346469830865        0.94296093266076
C            2.34275035336472        2.54302571107831        0.11388396239189
C            3.14736855087765        3.66447583036595        0.10625723996649
C            4.24409505605115        3.72683145972894        0.93766590396138
C            4.52546415569647        2.66994528592961        1.76963106382565
C            3.72172876115590        1.53190435139205        1.78922273666088
N            4.04792669723709        0.46235808762468        2.66687590832491
C            5.11165893071426        0.62097372726640        3.63421872653484
C            4.86119104680915        1.24925147835160        4.85347195548166
C            5.82443588297622        1.28643428493725        5.82815168237179
C            7.07739324967181        0.70071720389637        5.62399176405126
C            8.04998782486733        0.60905526229470        6.73907593584827
C            9.32446695321532        1.15115354332058        6.61818346719422
C           10.23354984846268        1.12857969417299        7.66383691021907
C           11.49982445233523        1.70225659279566        7.47522194717138
N           12.54291302416958        2.18201708030351        7.29918160576269
C            9.85742519761619        0.53977332990449        8.88718472511501
C           10.72455326303161        0.49204702382795        9.98899106799983
N           11.42466003958206        0.44105733044482       10.91451841434461
C            8.59433454511158       -0.01725511352590        9.00778156718832
C            7.68352080615726       -0.01169490716323        7.95755923213463
C            6.35994597894906       -0.66225317362357        8.09847729143929
C            5.93884544286028       -1.61471313497917        7.16602596843709
C            4.66758034349531       -2.12547022332023        7.20457894436470
C            3.76366741311669       -1.70517102048349        8.17912802323684
N            2.38985108934732       -2.15179854635848        8.13653635872944
C            1.91956936138593       -3.10311585178927        9.08331028763796
C            2.78455452987869       -3.57827633235590       10.06744600647647
C            2.37084890953493       -4.50358133482766       10.99532677968025
C            1.07754974937863       -4.97601098357605       10.95488463270764
C            0.21080679852412       -4.52011354674217        9.98239647001898
C            0.60669347441155       -3.58766572456243        9.03495650892337
C           -0.38971680413059       -3.12974628607249        7.96054282043376
C           -0.83157534342323       -4.36327352772678        7.14694444746322
C           -1.60677071482546       -2.49197067253111        8.66143898868931
C            0.21043939375327       -2.09885133956106        6.99480952347880
C           -0.57137951535729       -1.58050697740951        5.97294722616439
C           -0.07849236260643       -0.64216236318029        5.08938209344444
C            1.21871810748997       -0.19906404857451        5.21638824037041
C            2.01169197667927       -0.70054658429446        6.21970894559527
C            1.53218612384584       -1.65411720883494        7.11575650373119
C            4.19337116369383       -0.78964012198367        9.14101681497850
C            5.46803524166486       -0.28067108558597        9.10409859812810
C            7.34232930859970        0.11819362283229        4.38179077375416
C            6.37608983656566        0.07541176912439        3.40740201320737
C            3.27648359147891       -0.73312281923510        2.67698047699271
C            3.64129884058051       -1.77679141622924        3.52573886837238
C            2.89826625105527       -2.93005836130752        3.59973008625393
C            1.76989691394709       -3.06239380468436        2.82114506495316
C            1.39848432089669       -2.03992830142149        1.97177772582957
C            2.13425361911229       -0.86785837453728        1.87910988687512
H           -0.11822936632838        1.45260384179942        0.63969778911225
H            0.27562617266959        1.12493243810869        2.32325478750342
H           -0.43723169351438       -0.13615414074762        1.32018418816408
H            1.32157413023796        0.40386219194905       -1.23508121376318
H            1.00523991602646       -1.19761136674033       -0.58678867293624
H            2.66537779065174       -0.65150108223663       -0.80547057169711
H            1.48820727069676        2.50777536624699       -0.53891692546309
H            2.91895027114974        4.48932400305205       -0.54867406857400
H            4.87733538842225        4.59895589097947        0.93525338304830
H            5.38127738723496        2.71242874234455        2.41952108688598
H            3.89087022425927        1.68129829446167        5.02400376584373
H            5.61352988865762        1.74232620713820        6.78012810439623
H            9.60669876404365        1.61710317594117        5.69108376278709
H            8.31624069652412       -0.48202245756986        9.93673529660334
H            6.62190261005922       -1.92197280768093        6.39312948411641
H            4.33928617387164       -2.83789492954307        6.46863692417790
H            3.79520972275864       -3.21214948405137       10.09272484148349
H            3.05417410449112       -4.85864918957240       11.74943743339430
H            0.74475256178714       -5.70221028147199       11.67835645015355
H           -0.79482824034370       -4.90190310550365        9.95789955108973
H           -1.30012274846421       -5.11184764401815        7.78349203395475
H            0.02770663110289       -4.82504862643916        6.66250606482989
H           -1.54877854699306       -4.09380326074944        6.37363421197587
H           -2.08441413957212       -3.19209100066118        9.34459500558891
H           -2.35773938939801       -2.17198715853795        7.94124260996899
H           -1.29857166448776       -1.61924201039742        9.23578368443734
H           -1.58746998578190       -1.91724267901221        5.86442953743133
H           -0.70533167040374       -0.26187206635479        4.29987265238768
H            1.62019522658962        0.51411309573276        4.51587436363359
H            3.02835575416966       -0.36375031160189        6.31238938452171
H            3.49644421875877       -0.46693232590434        9.89455474552115
H            5.78219091033508        0.45050261531123        9.82875560911010
H            8.30279496751418       -0.33771339387291        4.21446863954585
H            6.56900637305269       -0.40633008558739        2.46489430586472
H            4.51294117599800       -1.66146016538792        4.14424427987434
H            3.19188360448997       -3.72371402832288        4.26677476212216
H            1.17821681404545       -3.96137484176679        2.87594610892221
H            0.51462275999316       -2.15622821153297        1.36943027382628
