52
 energy: -11.374977367913 gnorm: 0.000853104044 xtb: 6.5.0 (97a52f5)
C            0.79331135398552       -0.10639264140251       -0.08334924462325
C            2.33475241039907       -0.06320468156469       -0.12831499668988
C            2.82786860616175       -0.13605733233947       -1.58826812292725
C            2.80189889062599        1.26769345174024        0.47721789251185
C            2.39668562941814        2.46274162187175       -0.09810981108209
C            2.79212047379392        3.68209832027888        0.41281026384469
C            3.60957209417484        3.72805086704877        1.52028379345750
C            4.02373805215560        2.55682760514966        2.10674318779086
C            3.63280692014564        1.31799087880320        1.60270905624641
N            4.08623082236552        0.13069581268436        2.23929489083085
C            4.95802313602452        0.22649720012721        3.39021719459002
C            4.43131224801014        0.30433185214394        4.67859473556168
C            5.25775112693722        0.39787657613447        5.77076276902069
C            6.64674818219730        0.41417884455190        5.61900213825986
C            7.57391069663042        0.51499736203473        6.75736597514561
C            7.14386158203065        0.24700287745494        8.05287821227132
C            8.02181021988700        0.34127785379463        9.09553689406348
C            9.33177016387971        0.70101996588827        8.84034751769311
C           10.24055241945687        0.80195429150466        9.90425919986189
N           10.97480056111793        0.87811683355397       10.80092932727497
C            9.69842200952389        0.94881654047090        7.50988943787618
C           11.02545354110916        1.31144127352551        7.21464565834917
N           12.11622442934725        1.61348003820199        6.95232141189811
N            8.84087959437112        0.85656850340813        6.48936035303079
C            7.16532552581869        0.34621894955064        4.32605278633958
C            6.34242636158370        0.25198330808054        3.23235514607382
C            3.70665189208701       -1.14884677948625        1.75003192741086
C            4.16808609927560       -2.29329499976612        2.39721648658971
C            3.82440691697417       -3.54855766961772        1.95722240458121
C            3.00871260491130       -3.68363897568399        0.85564591453697
C            2.54427336107773       -2.55943246597712        0.20393155299112
C            2.87777919411932       -1.28246696990228        0.62985725701210
H            0.35607571456242        0.73323788138783       -0.62058715053911
H            0.44370575570171       -0.06424667583078        0.94737001161179
H            0.40728960910483       -1.02005635079224       -0.53182371489942
H            2.45348494564149        0.69918662468418       -2.17730414681388
H            2.49984204703780       -1.05334629651393       -2.07379114006180
H            3.91621968248396       -0.10920669818655       -1.62155206673101
H            1.75851521831154        2.44173702821477       -0.96400316041838
H            2.46244053328904        4.59597396647605       -0.05355438544585
H            3.92246155398372        4.67733462280324        1.92322350424596
H            4.66265703932110        2.58867905746099        2.97101508839633
H            3.36220071322403        0.29463373600864        4.79953245816473
H            4.82703341390654        0.48108307936026        6.75211623443855
H            6.12880537289643       -0.05628486988289        8.23578112438065
H            7.71021152018121        0.13640899216385       10.10587436870505
H            8.23352400654104        0.36735652583189        4.20000508646876
H            6.75109173698157        0.19836949111499        2.23865416792232
H            4.80488794229425       -2.18341643649465        3.25671829385625
H            4.18939733053866       -4.42313337996417        2.47045987785666
H            2.73380693965236       -4.66453796608289        0.50400985536643
H            1.90743180474335       -2.67960064402329       -0.65480551629907
