51
 energy: -10.865148628177 gnorm: 0.000883635489 xtb: 6.5.0 (97a52f5)
C            0.87433307582032       -0.09727319023168        0.04073349490133
C            2.41592508666554       -0.05116971633413        0.00047387344772
C            2.91127326342034       -0.12055008525261       -1.45845543710256
C            2.87957536371636        1.27930481427048        0.60936555787951
C            2.46006317703552        2.47391309274890        0.04300090576850
C            2.86103669997916        3.69411115396612        0.54782758384483
C            3.70084781919458        3.74075637590571        1.63860972726060
C            4.12982336702075        2.56976201027111        2.21528851003875
C            3.72956633168844        1.32956120498726        1.72102355987074
N            4.20344470424075        0.14146397513198        2.34309248025321
C            5.11358136143130        0.23261610451276        3.46357926244476
C            4.65022960139814        0.56283715831916        4.73635923563828
C            5.51907799528453        0.64039348834926        5.79593597923473
C            6.88330154564686        0.39849013109125        5.63305971184460
C            7.77768519426192        0.48884005468612        6.79941203921504
C            9.15391082561576        0.62518716320373        6.62597344373981
C            9.97889889395861        0.70122039932831        7.71407404453213
C            9.41518087975813        0.64364825986580        8.97599829524208
C           10.20386619461665        0.71115841132375       10.13542026036905
N           10.85497289713371        0.76842067578009       11.09522710195010
C            8.03669994039178        0.51957568737373        9.05077360002401
N            7.21801187780256        0.44616193099022        8.01835120261837
C            7.34074936494295        0.05782055419099        4.35702005887210
C            6.47426323122985       -0.02118200781332        3.29525912699943
C            3.80590049398480       -1.13794211792074        1.86520714863665
C            4.25608943366264       -2.28427500798389        2.51787547951279
C            3.89248249357663       -3.53864651290979        2.09112122703172
C            3.06660619150035       -3.67201801638637        0.99685022182222
C            2.60943057246409       -2.54654772295043        0.34194114461796
C            2.96043208417899       -1.27050080161307        0.75700130313797
H            0.43690245016370        0.74077265151420       -0.49900539021635
H            0.52136436000806       -0.05505319800240        1.07035842753326
H            0.49120141728716       -1.01175932052388       -0.40861184871101
H            2.53407066125211        0.71435876269364       -2.04640579628886
H            2.58695176014724       -1.03893363882754       -1.94473828049194
H            3.99962064336845       -0.08961303435577       -1.49036274024440
H            1.80899161052618        2.45078804111060       -0.81326192375772
H            2.51969914178431        4.60725865995768        0.08843267829678
H            4.01970595538218        4.69051098994218        2.03588974540956
H            4.78964335248620        2.60297285915612        3.06353212008523
H            3.59936201927087        0.74946297714962        4.87217511930531
H            5.15616685433131        0.89161468466168        6.77701242188835
H            9.56899967108511        0.69406716609292        5.63654233796381
H           11.04502868860454        0.80629287756118        7.60484785834361
H            7.58468846534124        0.47888873824291       10.02908639060164
H            8.38080777990706       -0.16922579629440        4.20663597594936
H            6.83064023004615       -0.28309485310944        2.31432954405207
H            4.89839204464868       -2.17660491028551        3.37349625732107
H            4.25042772998441       -4.41369282159903        2.60854250024725
H            2.77698437811909       -4.65191973180494        0.65433718728561
H            1.96438082463621       -2.66400857018201       -0.51109272821021
