51
 energy: -10.820605107921 gnorm: 0.000544832019 xtb: 6.5.0 (97a52f5)
C            0.96039767813274       -0.07121850653341        0.03906398805640
C            2.50223269276900       -0.02747292211805       -0.00283688615374
C            2.99646953259235       -0.10363422353753       -1.46142204274858
C            2.96806387320503        1.30538879981389        0.59964600923731
C            2.53383046353111        2.49922748150129        0.04298042177429
C            2.92567955692598        3.72008994527147        0.55367888001839
C            3.76941515964204        3.76879762542502        1.64142581552134
C            4.21598883633777        2.59853957536316        2.20611745289984
C            3.83042383518037        1.35818143659057        1.70116206019585
N            4.32557008202579        0.17198657382520        2.30934914877941
C            5.27323454932707        0.27116093933475        3.39847066137257
C            4.83480169316088        0.33962267268815        4.72015620465065
C            5.74107473561046        0.44478214351520        5.74450407518809
C            7.11204989829893        0.48716476257865        5.49991626207220
C            8.01114721998163        0.60093126962369        6.65041083447026
C            9.39119919569848        0.68973611366903        6.50650696921112
C           10.15960713217749        0.79256615524160        7.63268457215506
C            9.50155285339443        0.80063529472130        8.85912299749113
C           10.24762767825922        0.90113978417712       10.05321247872026
N           10.85394681458575        0.98236203410965       11.04015000058186
N            8.16866888961369        0.70947778087413        8.84377805608142
C            7.43395677636662        0.61595314112136        7.85939094891993
C            7.54804651386631        0.41640892366369        4.17435178283296
C            6.64457580205111        0.31013451764790        3.14553539931123
C            3.90999976318542       -1.10858154098565        1.85155300722133
C            4.37406948133738       -2.25139184013677        2.50011857585530
C            4.00008337095597       -3.50741744794041        2.08700788294020
C            3.15210124966810       -3.64465227346917        1.01014718206776
C            2.68479242342671       -2.52225977851034        0.35696920236510
C            3.04575543880281       -1.24471167929206        0.75853834961915
H            0.52331378921255        0.76239305943971       -0.50756679548883
H            0.60794495601279       -0.01964895020820        1.06840594042861
H            0.57569535364309       -0.98881242697044       -0.40218463484962
H            2.61787820999792        0.72840376733586       -2.05257862169278
H            2.67250475998596       -1.02498043962111       -1.94236327779279
H            4.08475527559988       -0.07186157745088       -1.49460629711995
H            1.87752928463777        2.47549257526662       -0.80921554039307
H            2.57246344787277        4.63307593170463        0.10300000943482
H            4.07803866259474        4.71874655262536        2.04620647388993
H            4.87550467673749        2.63177075976074        3.05477380007338
H            3.77810139755157        0.31051008192738        4.91972105672571
H            5.41991103166027        0.49846068835523        6.77061661006374
H            9.85053218783174        0.68126904437130        5.53466343599550
H           11.23283330744579        0.86401998487621        7.58659602299860
H            1.79534573364484       -0.99354840080768        9.56769687101056
H            8.59935128410492        0.44249885069867        3.95242248700914
H            6.98098081199185        0.25681047014887        2.12489348903796
H            5.03685164397856       -2.13942575869734        3.33952719034167
H            4.36840763689690       -4.37987775122826        2.60148919707355
H            2.85494872227413       -4.62603913078987        0.67836823190624
H            2.02701463708111       -2.64384408935971       -0.48571593964150
