52
 energy: -11.006389530304 gnorm: 0.000844980649 xtb: 6.5.0 (97a52f5)
C            0.81267679182908       -0.13499847139719       -0.12616224557962
C            2.35479656378048       -0.09982565083649       -0.14943327784337
C            2.86534042516247       -0.16373384327828       -1.60336737459435
C            2.82149573044219        1.22369277263334        0.47181275991354
C            2.42013806796991        2.42463326203998       -0.09449179025803
C            2.82992722543249        3.63883924711159        0.41755194452868
C            3.66168940090032        3.67326822559438        1.51475601997788
C            4.07186084372309        2.49555589373536        2.09198985371363
C            3.65946480176419        1.26102197757967        1.59292599002922
N            4.10707669812481        0.06507070389714        2.22162335495319
C            4.98859022679525        0.14417631383638        3.36514045635773
C            4.50441283995249        0.52679986850314        4.61557789461641
C            5.34475539789508        0.60258219253505        5.69888999529263
C            6.70242593076783        0.30004519909053        5.57677393400889
C            7.60812047602385        0.38540241451951        6.74244896719869
C            8.90390343112043        0.88433215382170        6.60917251671372
C            9.74493663688508        0.96157129392197        7.69756801910516
C            9.31375581028689        0.54372820224651        8.93872081369556
C            8.02813542003734        0.04154992631308        9.10676565305116
C            7.58419784876870       -0.38679817194710       10.37015278538351
N            7.21659302470855       -0.74143007377746       11.41265466106172
C            7.18928225443926       -0.03116010005322        8.00416638984544
C            7.18233475124806       -0.08377012776094        4.32325760661125
C            6.34315081194497       -0.16100121884072        3.23943357564812
C            3.70689404526893       -1.20905137609457        1.72958904748585
C            4.13430972395246       -2.36316009914061        2.38434277548071
C            3.77161047035132       -3.61230176920136        1.94088726068483
C            2.96808385240283       -3.73192207505307        0.82855565697854
C            2.53034453225197       -2.59896025564824        0.17337503804600
C            2.88115677701131       -1.32823706443709        0.60503401360113
H            0.38701548284778        0.70933292480035       -0.66541862085247
H            0.44778138987926       -0.09681140412488        0.89950308943587
H            0.42903957195281       -1.04420591966532       -0.58565912416357
H            2.50076768383292        0.67821998500049       -2.18930558053746
H            2.53843613365701       -1.07609690408074       -2.09920066049856
H            3.95418446182109       -0.14136743936227       -1.62468463767532
H            1.77695094633017        2.41165729926685       -0.95687528344551
H            2.50322833070742        4.55770860440510       -0.04120360290022
H            3.98935121151487        4.61763170177314        1.91776127085826
H            4.72665274678966        2.51953606145278        2.94427577166310
H            3.45889125278782        0.76042891374180        4.71576010976948
H            4.96200119479722        0.91347556752509        6.65533476378553
H            9.23847452388448        1.22437870262036        5.64452122030810
H           10.74257789006475        1.35168616418302        7.57920719283720
H            9.96799535841849        0.60278757628104        9.79181094568210
H            6.19941453791600       -0.43174499027923        8.12781066080831
H            8.22309425756828       -0.33531791680155        4.21561418881104
H            6.71859213924962       -0.45649701013305        2.27538797200760
H            4.75744745380826       -2.26656223353536        3.25524296922563
H            4.11396860818759       -4.49236461854734        2.46046844364470
H            2.68001289031770       -4.70775384756764        0.47307549557508
H            1.90037112242003       -2.70616056687102       -0.69227888005032
