50
 energy: -10.715518291072 gnorm: 0.000783753330 xtb: 6.5.0 (97a52f5)
C            0.88252550071772       -0.14488852726740       -0.17120406959278
C            2.42493012701815       -0.11426524262731       -0.19030568820555
C            2.94055078159359       -0.19147933672270       -1.64209551593793
C            2.89322813222346        1.21267223318592        0.42249760443909
C            2.50181502636554        2.41019829077971       -0.15764222673486
C            2.91053950174716        3.62715532853449        0.34838262585293
C            3.73096350516719        3.66783142758998        1.45380056511465
C            4.13164100066399        2.49392393539938        2.04462569856794
C            3.72100529429691        1.25693704431492        1.55084464856175
N            4.16248838683801        0.06534288353602        2.19049683046137
C            5.03341460048043        0.15154353796565        3.34121492839929
C            4.53752890537185        0.53983928575005        4.58502415187457
C            5.36798307077505        0.62261737143851        5.67472630593041
C            6.72699536089411        0.32237483683811        5.56659563053949
C            7.62200403873741        0.41969678581064        6.73660892252553
C            7.21138803060018        0.08492134654164        8.01318239690981
N            7.98800296142694        0.16456513257805        9.06630801756782
C            9.22912557569522        0.59839330353032        8.83329231755671
C           10.08695459604719        0.69152692056995        9.95054233433746
N           10.79363316182227        0.76952688221041       10.87122439203952
N            9.74474725027907        0.95197451845857        7.65348396217308
C            8.92990256475507        0.85397642322433        6.63147839629719
C            7.21805161141307       -0.06799701929416        4.31962438231504
C            6.38929581490119       -0.15219352627356        3.22901637464259
C            3.76608170699080       -1.21139086144926        1.70398249510666
C            4.19001560557124       -2.36084886720934        2.36857918973395
C            3.82808671445531       -3.61246005411461        1.93250989752804
C            3.02866056020888       -3.73954513339034        0.81825781191054
C            2.59507553158051       -2.61097323569515        0.15310721605908
C            2.94587475225944       -1.33757536276395        0.57632194246893
H            0.46096318928229        0.70006680398543       -0.71279929477773
H            0.51571176173745       -0.10369726568364        0.85367139661264
H            0.49710987414547       -1.05368340325457       -0.63009192682864
H            2.58041473332447        0.64611613077590       -2.23679652735731
H            2.61354945681503       -1.10709546357933       -2.13163828156975
H            4.02947882910875       -0.17202693191540       -1.65901672754754
H            1.86696799186818        2.39257230923384       -1.02614165899784
H            2.59129521903665        4.54304228563301       -0.12133864198459
H            4.05701259019851        4.61478075483902        1.85199744518169
H            4.77854756217173        2.52276559173289        2.90283722076954
H            3.49077202199915        0.77212753232776        4.67432264133383
H            4.97580608485884        0.93939704012348        6.62527516033257
H            6.20685769600457       -0.27612451421720        8.16559753116899
H            9.31157532230265        1.14642707078484        5.66628138106709
H            8.25951540184552       -0.31987807211245        4.22216209752370
H            6.77361183148076       -0.45064494153093        2.26945429997947
H            4.80958788381995       -2.25845310750765        3.24137020707220
H            4.16705073169543       -4.48955023299062        2.45914942937531
H            2.74039374355713       -4.71743959064143        0.46894767902284
H            1.96788840383603       -2.72419231745000       -0.71370496881401
