59
 energy: -12.164074469076 gnorm: 0.000765436677 xtb: 6.5.0 (97a52f5)
C            0.98725470935996       -0.22018750644000       -0.03881599243569
C            2.52714580033384       -0.12618664838917       -0.07050548129134
C            3.03330459736920       -0.15393276836694       -1.52749194176344
C            2.94575575864617        1.20686085791632        0.56469310469813
C            2.49163138955751        2.39843451732661        0.01941833373994
C            2.82940577031324        3.61930124671738        0.56653407113042
C            3.63508703385395        3.67027655227696        1.68214107056601
C            4.09994361177408        2.50259679767933        2.23672971459396
C            3.77355102321527        1.26194681017690        1.69225398225664
N            4.28187243789318        0.07841092808241        2.29385456319100
C            5.17513823539945        0.18488958215494        3.42584580228854
C            4.71183220029295       -0.04604797884134        4.72087094663598
C            5.55616937218194        0.07758951559928        5.79558304367330
C            6.88838504300701        0.43639522381171        5.61241244945058
C            7.77097705721424        0.57861269868780        6.76352337310997
N            9.05647437767038        0.92284573872907        6.68208451113416
N            9.44456492259169        0.93800199223144        7.93159585304915
C            8.47700100395717        0.62116755246538        8.81927926753955
O            7.36779877920009        0.37925923381704        8.06733197323787
C            8.70696323606248        0.59079678293660       10.23778685822277
C            7.70338987648199        0.26351105548580       11.13641187919788
C            7.95960165714915        0.24795361629784       12.48935020099365
C            9.22286331797967        0.56028402377910       12.95804105871033
C           10.22942042873911        0.88731741367354       12.07867934290389
C            9.99649823897024        0.91051216990933       10.70524736582511
O           11.01080285078589        1.24022700869953        9.83344652060099
B           10.88146719007502        1.29801356207972        8.35505646649470
F           11.72940356761702        0.37916943828769        7.76887826453186
F           11.13595947751435        2.57934443181472        7.90736964284564
C            7.35361374086760        0.66377602966855        4.31976873302177
C            6.51165516140803        0.53958284143471        3.24339496831062
C            3.93442266529908       -1.20357741566428        1.78705347263751
C            4.43957848070267       -2.34606367030250        2.40471394366284
C            4.13299894520114       -3.60267669183048        1.94168584393833
C            3.31259343065695       -3.74149218178803        0.84438051597312
C            2.80805166184167       -2.61993199649800        0.21879091929689
C            3.10390655690288       -1.34180410229693        0.66837866925432
H            0.52675912153245        0.61174035597143       -0.56836152084079
H            0.62850375057337       -0.20374328359648        0.98944167787683
H            0.63480685301202       -1.13938338732949       -0.50295766429893
H            2.63371883130725        0.67890853237457       -2.10315436984492
H            2.74093229653897       -1.07274321693939       -2.03248706243024
H            4.12020628009723       -0.08837566735788       -1.55159994940595
H            1.85934669901361        2.37329744269686       -0.85056460733366
H            2.46186623152638        4.53039783736818        0.12368822258949
H            3.89914215504164        4.62024234386286        2.11706407831554
H            4.72665552318355        2.53908010803204        3.10963081620328
H            3.67953012699251       -0.31452529335513        4.86171329492826
H            5.20011739111751       -0.09596151684699        6.79650357549993
H            6.72439531686579        0.02320698220115       10.75864256633101
H            7.17554662124960       -0.00732622300237       13.18299522935597
H            9.41965685652233        0.54789968917768       14.01749272294807
H           11.21415897416031        1.13201665924395       12.43534732478486
H            8.38340592916460        0.94153248505728        4.17917399666227
H            6.86881625477507        0.71540582793454        2.24380286276589
H            5.08336427067890       -2.23464403621254        3.25861398439088
H            4.53216487679556       -4.47459480302734        2.43343631529725
H            3.06706074682327       -4.72334764865262        0.47417281498689
H            2.17172128493720       -2.74277984892941       -0.63986762001641
