95
 energy: -19.982787473678 gnorm: 0.000700750605 xtb: 6.5.0 (97a52f5)
C            0.30802611163440       -0.81054960175616        0.71549368299985
C            1.80278385577666       -0.63212104903931        0.37963024447035
C            2.03230988842836       -0.82029918641070       -1.13383877235505
C            2.22134866744115        0.79465225761265        0.76143512801594
C            1.58451537865933        1.87640705400605        0.17107734465005
C            1.92393122136402        3.17645637034811        0.48748758242815
C            2.91673452335202        3.41960704911734        1.41122645381612
C            3.56164244779586        2.36294067845705        2.00814969175753
C            3.23305915399158        1.04427174912260        1.69700416971174
N            3.92278257105199       -0.02036148842776        2.33971657303582
C            4.96921446445146        0.27975300028904        3.29265132848926
C            4.72538688763383        0.20612858667902        4.66361360277168
C            5.71916905873182        0.49537432206596        5.56607063314631
C            6.98919662395998        0.86725475443103        5.13094632296738
C            8.04504386436889        1.18434836182158        6.09326552226685
N            7.86026798511498        1.14840003942494        7.43964709403698
C            9.01313646730927        1.51153639759999        7.95541076876121
C            9.28762323692833        1.66074658577873        9.38548889867418
C           10.34536538059505        2.46218116127138        9.80906859145781
C           10.60286721884803        2.60923667602615       11.14469019696370
C            9.78728698877781        1.94861352447394       12.03095906060577
C            8.75780193347879        1.18335761363095       11.53493758426648
N            8.48415189408068        1.02485596244501       10.25166695930554
N            9.90100218687346        1.74676049060272        6.88235477991327
C           11.30229833361736        2.08759384912728        6.97409556091102
C           11.74428422160708        3.33089925030106        6.54461004078663
C           13.06475582586480        3.68287801591197        6.68134433647988
C           13.97893118136725        2.79694968977447        7.24862729050753
N           15.35937248459567        3.18826047679719        7.43016507999972
C           15.69331943030008        4.08610425045387        8.48020927489569
C           14.70663559302313        4.49134291240556        9.37833133650836
C           14.98744608804470        5.36592641048581       10.40019572924710
C           16.26756231770203        5.85459652937269       10.54424387711581
C           17.25680252242856        5.45806893570476        9.66685693702895
C           16.99768811951425        4.57245691786400        8.63138821324002
C           18.13389242751083        4.15517161900848        7.68707027392990
C           18.65603488961614        5.41373178495023        6.96574881270917
C           19.26112046966995        3.51933193630227        8.52699304663579
C           17.68272428915440        3.13970692277467        6.62772824887790
C           18.60528069580203        2.64233246370943        5.71901430514407
C           18.24205700210871        1.73887456910564        4.74087943417477
C           16.93409011215569        1.31538797429468        4.65144897147665
C           16.00248522953397        1.79729627368675        5.53950958055901
C           16.35418254908236        2.70608203887288        6.53624617434514
C           13.53265291312915        1.54331322305017        7.66287252863300
C           12.21158275480852        1.19319949210316        7.52396626822740
N            9.27485542136328        1.54467879820447        5.73358604902015
C            7.23247491756218        0.93872257881559        3.76106538963965
C            6.24056631900141        0.65041279417442        2.85653107095372
C            3.60272570015177       -1.37568864704934        2.05249801386197
C            4.30396892141379       -2.39753036303985        2.69095370229428
C            4.02804221986953       -3.71981293640542        2.43752478203547
C            3.04065939628879       -4.04763756201112        1.53442113233331
C            2.33994514053310       -3.04742869879136        0.89098758048812
C            2.60214649806792       -1.70643746568172        1.13028447924811
H           -0.30772216358892       -0.08440586331867        0.18747930540395
H            0.14133373368226       -0.67863969536669        1.78387309980066
H           -0.04539897054060       -1.80286141895539        0.44044603912909
H            1.46911750298432       -0.09180988291209       -1.71462470105070
H            1.72458485444252       -1.81160682259177       -1.46227768769661
H            3.08759307719032       -0.69907976660247       -1.37527631939337
H            0.80628140796861        1.69982190509751       -0.55067424713876
H            1.41315696821033        3.99900776315101        0.01404336162297
H            3.18574682323870        4.43225040588070        1.66403271752451
H            4.33509536204024        2.54911306824674        2.73169508622622
H            3.74396873900099       -0.07858309116748        5.00042071608833
H            5.52899333724703        0.44069232143329        6.62339699844159
H           10.95036958976265        2.97260516982724        9.08300721057584
H           11.41766203974526        3.22412367009391       11.49068813565911
H            9.94963547970049        2.03100795838517       13.09323700759313
H            8.11214091592474        0.66545614635350       12.22763326119928
H           11.03460489875746        4.01687031431366        6.11651527505596
H           13.41141235337551        4.64922719726718        6.35939637515684
H           13.70911851301049        4.10605913767518        9.26437504741794
H           14.21097136449815        5.66957409423872       11.08327346042370
H           16.49579304518999        6.54396688072762       11.34055782754082
H           18.25197053092960        5.84841284308286        9.78938618161567
H           19.01402385586394        6.15775907247230        7.67538686757145
H           17.86210875250821        5.86780120480611        6.37391317555763
H           19.47969928042649        5.17391055065824        6.29533241870366
H           19.63424560658942        4.21020264309065        9.28095642838677
H           20.10550872922185        3.22768601336703        7.90491473516839
H           18.89671114441411        2.62898572802343        9.03789972060989
H           19.62824084647270        2.97156807338023        5.77313717976335
H           18.97885018285244        1.36715350550226        4.04763784701912
H           16.64327493819260        0.61152493313697        3.88882910713135
H           14.97999526375784        1.47216593719882        5.46938335644251
H           14.23793440610977        0.86066977861300        8.10356436248591
H           11.86112247221785        0.23105249693540        7.85434601813300
H            8.21242608489751        1.22569553048766        3.42264505818583
H            6.42927850773618        0.70567430502118        1.79869486671177
H            5.07644751440487       -2.13820235930423        3.39260820197803
H            4.58083141656800       -4.49565711043416        2.94169379513210
H            2.81766121099426       -5.08199504087342        1.32948117397448
H            1.57343838844742       -3.31649294088295        0.18547057251507
