96
 energy: -17.829058626367 gnorm: 0.000435251939 xtb: 6.5.0 (97a52f5)
C            0.83041456131170       -0.24265149031968        0.01388116675067
C            2.37265791846781       -0.19496200312485        0.00900622409434
C            2.89996409336703       -0.27785430338721       -1.43779429317880
C            2.82009299984407        1.14255250538488        0.61420354766107
C            2.39523307333100        2.33083427300599        0.03762755229015
C            2.75567141253399        3.55747002373884        0.55823941976605
C            3.55428001527399        3.61693293922624        1.67933382341782
C            3.99176688414299        2.45215656626020        2.26319185105201
C            3.64594654754564        1.20483005994555        1.74370068971636
N            4.13208243041371        0.02293835209336        2.37142769414142
C            5.05815733314409        0.13788813984468        3.47588790814519
C            4.66469058867666       -0.17599525793470        4.77784545849266
C            5.53964639769161       -0.03520155971348        5.82623153142460
C            6.83785379607715        0.42870908432168        5.61583830804862
C            7.76903829193125        0.60091578424666        6.73966439782155
N            7.34309722674667        0.25344030398345        7.94707191407737
C            8.22184522379064        0.44319994553774        8.90489130410237
C            7.78558974300831        0.05423563939512       10.32190633431938
C            7.51228134072962       -1.47598883964225       10.38719248261300
C            7.05191282228094       -1.88193163169156       11.81028522779237
C            5.75183388629553       -1.11569504143408       12.16796512169275
C            6.01928323448696        0.41141556336211       12.12651972240668
C            7.12923020236325        0.76861376669630       13.14885032160014
C            8.43024614013295        0.00450222053071       12.79128877716312
C            8.16106347867687       -1.52200627057510       12.83253059092719
C            8.88631701921265        0.40653814354028       11.36622253726206
C            6.48204200559983        0.81382746474968       10.70312905560872
N            9.43788183779076        0.92736199760281        8.75626412556986
C            9.74741149386021        1.23590026687393        7.51390826118049
C           11.14813893623580        1.81667314198165        7.29251482223733
C           12.22146779500729        0.79356162798964        7.76410230291752
C           13.64406859372186        1.37843283066968        7.57589386783986
C           13.77902845753395        2.68041695028000        8.40775994179269
C           12.72723219207181        3.71505631876675        7.92980024914487
C           12.95846269728423        4.03139338504089        6.42941646768214
C           12.82137295969623        2.73038593371417        5.59673377273650
C           13.87447279220477        1.69794436895681        6.07600717504863
C           11.40037047448583        2.14290534717004        5.79096686247135
C           11.30612912728596        3.12678988409808        8.11744681563544
N            8.96781769292046        1.09847924676629        6.46610820803611
C            7.23077968251034        0.73839878725534        4.31425697813703
C            6.35970740177182        0.59461129456773        3.26379556252676
C            3.74221351326067       -1.26321467961390        1.90131367220873
C            4.21699209520797       -2.40609956503702        2.54412555286808
C            3.86488679231034       -3.66493112685710        2.11892165873417
C            3.03038543644937       -3.80707634939805        1.03189109978294
C            2.56030407018986       -2.68639174781275        0.37735921632059
C            2.90158716603797       -1.40637618051256        0.78966395423113
H            0.40511479553241        0.58672571398021       -0.54898628945723
H            0.45212685246159       -0.18485235816774        1.03400871002207
H            0.45897407121703       -1.16451434654756       -0.43063963824457
H            2.53058378556681        0.54878818334225       -2.04279475221869
H            2.59076647396976       -1.20387122338698       -1.92022234141169
H            3.98885110582386       -0.24130026306221       -1.44774891622186
H            1.76921265459055        2.29750952008231       -0.83702708170500
H            2.41110810217454        4.46602228044954        0.09160077273903
H            3.83483249227233        4.57098623874175        2.09538363975099
H            4.61170219825438        2.49668642782708        3.14076696389549
H            3.65965539376453       -0.52145354350770        4.94652633886417
H            5.23123988333926       -0.27448287828453        6.82881486387139
H            8.41997624752621       -2.01889445386652       10.10481652281919
H            6.75013651393767       -1.73866906498919        9.64673041333759
H            6.86053106517510       -2.96924335213818       11.84000089050862
H            5.40033040031548       -1.41126547294957       13.16325398920987
H            4.95329399302882       -1.37829930517581       11.46445650136260
H            5.09285820864417        0.95617910253337       12.38096594546133
H            6.80595390336449        0.51044261067249       14.16390635402952
H            7.31263808940584        1.84933481642603       13.14532598529549
H            9.22158417977741        0.26065852210846       13.51788730125114
H            7.85899776309641       -1.82577583197508       13.84147884547526
H            9.07994698517413       -2.07376315541809       12.60264430094322
H            9.81553833644013       -0.10644126815474       11.09891015367135
H            9.10079485434458        1.47875302617395       11.31733605407149
H            6.66087147073349        1.89228790431946       10.64540284732050
H            5.70393297634187        0.58836155746389        9.96701658678299
H           12.10798107294167       -0.13715521497369        7.19899454192817
H           12.04368510065937        0.54208987070820        8.81454634955800
H           14.39356648880940        0.64234371489738        7.91675086474640
H           14.78936916853912        3.09259100425252        8.30390668063324
H           13.63828421076489        2.46385094848936        9.47307666895984
H           12.82405881378895        4.64188104504972        8.52259563808589
H           13.95223394037583        4.47055076594200        6.28430165385992
H           12.23406318963325        4.77846525131328        6.08487831850148
H           12.98430978993523        2.95624376062851        4.52801020463551
H           14.88614322926083        2.09172379288431        5.92449838255045
H           13.80390945086295        0.78126667680597        5.47910589682262
H           11.27468635691478        1.23228701369096        5.19689100131652
H           10.63988363557599        2.84788657045166        5.44085798749836
H           10.54445607936844        3.84742610011459        7.80277396532663
H           11.11333688987441        2.91357918063622        9.17372602922397
H            8.23114785389130        1.09733342912526        4.14717824276723
H            6.66569675518914        0.83837552858152        2.26133053068370
H            4.87493327999592       -2.29418892309272        3.38715805024259
H            4.23991092552539       -4.53560751837783        2.63207906783500
H            2.74921903739603       -4.79048884293733        0.69151030424443
H            1.91827205949753       -2.81075965123559       -0.47727457716339
