96
 energy: -7.318072621849 gnorm: 0.095764744711 xtb: 6.5.0 (97a52f5)
C            0.67156294072797        0.46663306790000       -0.16689553000880
C            2.04553059983581        0.43670143731014        0.13042974538069
C            2.85703314412081       -0.24381594521719       -0.77405033754603
C            2.65346815478767        1.63934050978802        0.76676136055694
C            2.35073755208579        2.87156716989842        0.35205514273512
C            2.91223748428005        3.93042776343087        0.88083064754091
C            3.82137702945832        3.82784065049897        1.84362874105794
C            4.19083787893644        2.65453619255933        2.30737908193436
C            3.60288264686706        1.50738297160041        1.80099786232716
N            3.95904308135387        0.26160455336634        2.23273911194899
C            4.84771308701917        0.00285902026034        3.18411411562362
C            5.00417760527095        0.64652882113415        4.32949976168717
C            6.05632063278229        0.61338935260271        5.12741906670097
C            7.19929265757087       -0.03139511072527        4.93458417447713
C            8.29832687219112        0.05642946107073        5.75021103020603
N            9.47717248723179       -0.43316463798299        5.53584640118718
C           10.26605870356900       -0.10150527436694        6.49242939687455
C           11.62076712488265       -0.41578524317166        6.60956236365680
C           11.92973520310852       -1.47991632700750        7.47054612551002
C           13.30082716766671       -1.83186040320637        7.55231581871449
N           13.65384141094481       -2.81312918402120        8.38070264915846
C           13.16216311582389       -0.89539100097760       12.14519372826093
C           13.94481736689609        0.22009760001970       12.10217930501551
N           13.66432578475720        1.22823747772159       12.93159038278301
C           11.55968935495304        4.82293918018358       10.24407153186549
C            8.75332127505911        1.04127797558348       11.74911199525603
N            6.54042444451745        4.75896692963269       14.03031997343095
C            6.14999549065643        2.49521487792477        8.08689502771858
C            5.75523603597617        1.49678933380792        8.78737064079222
C            4.68120184839019        0.67935870406219        8.49104245469015
C            3.45156315414989        1.31543491133107        8.22134792180603
C            3.20442942962928        2.55226162487816        8.86549422217877
N            2.00405704603499        3.20407770976069        8.62953273488167
C            0.77207471416606        2.61075732442710        9.11945372167681
C            0.74277807201058        2.31089789634141       10.55481721966618
C           -0.31654935785672        1.53521274375425       11.05009812944389
C           -1.56829936195713        2.04942097409110       11.06581434020770
C           -5.23524444807437        1.89635402523754        6.05470567573337
C           -0.40170908524999        3.22060481469427        8.63489019246381
C           -2.13116561341500        6.61308586601358        5.74344772110354
C           -1.95345555256504        3.35732655033982        2.60591362843219
C           -1.19757740625931        8.44695207722075        9.95091617297877
C            1.51322967794375        6.21824518343601        6.15651289720299
C            1.46963617364046        7.07762589146017        5.08825748249171
C            2.59767000591321        7.30348905538649        4.38344073737019
C            3.74889433280500        6.69748236927530        4.74002491049290
C            3.77377250204392        5.86096365600996        5.78138319553429
C            2.67493052932555        5.61603250578610        6.48572322378895
C            4.58927893637162        5.10053587433947        9.54117913643699
C            6.40976660296991        4.74630162531617        8.74789032670933
C            7.87972610545297       -2.95225073788993        6.49965041255109
C            7.50205939323669        0.48754767917453        1.81365131823595
C            5.52444577686805       -1.85376223919454        0.99484328059979
C            2.80480620578751       -2.68079568897502        5.31602185375117
C            6.33243390922260       -4.43289827141594        2.74899827955131
C            2.80716415414529       -6.23489312179577        0.81410513142152
C            2.23250264268398       -3.02945939004257       -2.07855282409621
C            2.72737507989874       -3.04596257150394        1.98328725610300
H           -1.29264135779288        1.65460658956900       -1.26895699530189
H           -0.44125143059262       -0.24454505174616        2.39393907292324
H           -0.58666714040494       -1.37642250594927       -0.97678725348882
H            3.50276174914004        2.06048366810715       -2.64976487981584
H            3.24581460204307       -1.15684432269758       -4.40513632658102
H            5.06949084518919        0.66279558476922       -0.76264697883359
H            1.08413727326266        3.12576765258434       -1.83289042418796
H            2.17295424937210        6.15688415738128       -0.07059146984269
H            5.25974327688759        6.16947820326588        2.27961747519159
H            6.02545057388755        3.15311787148838        3.47720236047559
H            2.75048013770314        1.45524770612146        4.71147141608323
H            5.42488886634064        2.89873792620819        6.47830789148170
H           11.85488437752120       -3.07528406640193        5.03024227014574
H            8.54315698290956        2.03308011792859       11.44048424532004
H            5.22652257579967       -1.17175203569654        7.17435690943446
H            1.06541218299066        0.25262906017178        7.00745408990934
H            3.25576173636012        0.74803881769882       11.28790518144684
H           -0.09820808770450       -0.74767358053756       12.04246025601884
H           -3.79803984693364        1.49297675210843       10.40238660761198
H           -5.14213440662526        5.24086632567246        8.94802471688384
H           -3.33120230737245        5.09998483089034        5.57281135256265
H            0.36229362944722        3.88435311491949        4.72298085963820
H           -1.41663798507054        6.48502758957707        4.00009767456786
H           -1.66634184717940        6.02802896384140        7.49272306029371
H           -1.99867292921015        8.20946964951933        6.60927512389068
H            1.30732519113291        7.05760491673601        8.77906081487698
H           -0.11789967922632        8.61880737617934        4.57724566323354
H            2.37704017445438        9.67864994997390        2.58554525237329
H            5.89485246339493        7.58318600344139        4.58233090044418
H            6.14030543277069        5.20008995778152        5.67031008798182
H            4.12914489448596        7.76885252367906        8.02631904625015
H            8.82761105055795        5.08851333581100        8.39914776716142
H            9.62089650710738       -1.90611369376202        3.71697564953429
H            8.34623771572924       -2.94343962735866        0.83353040015810
H            5.57954595328277       -2.32449994477918        4.47070471315290
H            4.15063583659567       -7.27397084421330        3.55761939043389
H            0.75371107540565       -7.10668924106531       -1.67334875776354
H           -0.37683413409993       -3.37173199544669       -3.88805721456381
