71
 energy: -14.708945990084 gnorm: 0.000251801584 xtb: 6.5.0 (97a52f5)
C            1.56003305452144       -0.79169772783845        1.10108765971271
C            3.07553867514965       -0.70251443124220        0.82883678788232
C            3.35782849516032       -0.92406423308571       -0.67128753057619
C            3.55668934650100        0.70391267539990        1.21246692075717
C            3.01529880119269        1.81147258716809        0.57618454651962
C            3.41743485060219        3.09438292841182        0.88980060895570
C            4.37908369536073        3.29394671417408        1.85620794723933
C            4.92911053845055        2.21106362322688        2.49941614493145
C            4.53356419475578        0.90948590064711        2.19432467721728
N            5.12991452078499       -0.18248950342080        2.88419750665559
C            6.13447142486246        0.08043650357312        3.89273937993198
C            5.76533676579798        0.32269276392162        5.21606629586856
C            6.71316042574122        0.62320497900926        6.16146032999019
C            8.06680114803647        0.68146195421075        5.82248746347523
C            9.07717115118181        1.05817524258936        6.81982010433943
N            9.98381031636280        2.00357289690216        6.60523242302521
C           10.67083889069981        2.15031785184459        7.77617081347877
C           11.71401500368322        3.00602910969273        8.16169378185132
C           12.18267038929204        2.93072207874829        9.45039432038778
C           11.64731244983300        2.02456048855466       10.38184798194382
C           10.62934385752134        1.16153764226982       10.03728518452331
C           10.16369540599161        1.25082566824522        8.72822009808685
N            9.16434155124947        0.52129052528202        8.13039058392052
C            8.60107713071801       -0.56861414589427        8.87060318428839
C            7.74738479000357       -1.47265413748772        8.24983795751389
C            7.19336870117078       -2.52002630005647        8.94666963428345
C            7.49107030999761       -2.68248786150871       10.28192648055593
C            8.35827906728519       -1.80850556383397       10.90581279590614
C            8.94562040726293       -0.75261431722494       10.22398485219090
C            9.95794676414788        0.15366419386711       10.97470720994849
C           11.05441963313193       -0.72584437208308       11.60713004430890
C            9.20764989925205        0.93067553380187       12.07030668742123
C            8.43315200804098        0.44505898021802        4.49674658017677
C            7.48556964075940        0.14459697927964        3.55051171248603
C            4.75055528852280       -1.52223338508515        2.59439565759666
C            5.35360559200091       -2.57078640005727        3.28713068910081
C            5.01380953821219       -3.87915308965810        3.03785986370169
C            4.05927827106776       -4.16475487722653        2.08588737107632
C            3.45310383271680       -3.13697989169003        1.39160021600605
C            3.78002434171176       -1.80946570111418        1.62642607366804
H            1.01042961225729       -0.03837409029858        0.53897414719443
H            1.35504125861511       -0.63674419535893        2.15980144637333
H            1.16246475751545       -1.76585721293679        0.82098247595118
H            2.85922669866666       -0.17504963002119       -1.28439240090748
H            3.01101350934246       -1.90207235933058       -1.00103197162884
H            4.42737242983954       -0.86244076885376       -0.86921323416031
H            2.26328105165414        1.66909964679081       -0.18021380991614
H            2.98068178611927        3.93780819978588        0.38019297321292
H            4.69793786063820        4.29284137647219        2.10606270259096
H            5.68031225253517        2.36230797295342        3.25405382232647
H            4.72244224359411        0.28235725552768        5.47784592735860
H            6.42162411055767        0.83342460768953        7.17607115983690
H           12.12250506520788        3.70283841727207        7.45205838862555
H           12.98004530086693        3.58652920875817        9.75918725620549
H           12.03319486673298        2.00818961344633       11.38604663963420
H            7.53336323998619       -1.35447577541716        7.20400395210635
H            6.52876382167642       -3.20926171918201        8.45146073202180
H            7.05413358568763       -3.49690443261462       10.83664390554119
H            8.58398855368634       -1.95160616646380       11.94813556052705
H           11.58269716828662       -1.28744039936266       10.83749896427245
H           10.63805480223403       -1.43740666787270       12.31797763013544
H           11.78454828564082       -0.12013673907644       12.14181993906241
H            8.42887251374159        1.55265924972399       11.63021083739710
H            9.88528775600201        1.58038289980866       12.62280809254630
H            8.73655451052294        0.25435351628783       12.78220813853881
H            9.47301838428440        0.50637457486784        4.22660556155882
H            7.76858866950150       -0.03401093464739        2.52788170793336
H            6.09794577217541       -2.34273834757905        4.02920610251383
H            5.49091385639817       -4.67699168916354        3.58345967471173
H            3.78637943770000       -5.18785107839181        1.88424990641231
H            2.70882666958375       -3.37299621536589        0.65112273167480
