50
 energy: -10.716859525075 gnorm: 0.000546937246 xtb: 6.5.0 (97a52f5)
C            0.98317723365996        0.00448053222051       -0.14773896256286
C            2.52578931005413        0.02152070429517       -0.15242964933476
C            3.05424947936627       -0.05257948725447       -1.59963345031149
C            2.99845106588014        1.34161991520256        0.47215495751529
C            2.62276723866749        2.54619655618849       -0.10348099497247
C            3.02167606394919        3.75642203234399        0.42647634107716
C            3.81246764748887        3.78325867467196        1.55390466506879
C            4.19856014080151        2.60202453616099        2.13979679429330
C            3.80501096904008        1.37208857022373        1.61592645269986
N            4.23916534313672        0.17380819489784        2.24624723019116
C            5.12021345169226        0.25117914632154        3.39139503620522
C            4.60364036535156        0.38940748494208        4.67988269255749
C            5.44317173148320        0.48675718320489        5.76092750873464
C            6.82739830035866        0.45013007297540        5.59735278816565
C            7.72455547007470        0.57155048471641        6.75346895995617
N            7.14725861361730        0.72103459591877        7.95033659696667
C            7.96996711091478        0.84070477133733        8.96431788515795
C            9.34245580559248        0.81639063286090        8.83390062911632
C           10.20094710689737        0.95163565660424        9.93628054959094
N           10.91177458928766        1.06567807682253       10.84709753277329
C            9.81732915857802        0.65214346278841        7.54995167432294
N            9.03747425988302        0.52855251232803        6.50315400042357
C            7.34050860310680        0.30593018089116        4.30897493075688
C            6.50467637027849        0.20801633111831        3.22533340428041
C            3.84123793905444       -1.09662221303879        1.74743196757233
C            4.26619994341841       -2.25189762614425        2.40051221282185
C            3.90387000391616       -3.49890888235048        1.95154446518106
C            3.10577461684504       -3.61430050329143        0.83480205674545
C            2.67692727527618       -2.47924546896860        0.17733663883218
C            3.02890470554074       -1.21047729005204        0.61290409753683
H            0.57471049165714        0.85002847895609       -0.69821231672592
H            0.60737120484934        0.05525201683441        0.87334169343589
H            0.59394704287554       -0.90361554801246       -0.60437866031594
H            2.70151320262605        0.78756685221511       -2.19507913529925
H            2.72961524604136       -0.96596449881930       -2.09486314219758
H            4.14324320203629       -0.03555388201709       -1.60625985740360
H            2.00569459100233        2.53960733264263       -0.98479744338631
H            2.71554679573231        4.67820438152126       -0.04045562687778
H            4.12658801908580        4.72499926736788        1.97326193336461
H            4.81719598674864        2.61836931035423        3.01923478192733
H            3.53585084385313        0.42240285314662        4.80880365272595
H            5.04301187640529        0.59778906230369        6.75295848455792
H            7.53864379601180        0.96639892152534        9.94539202808158
H           10.88341266575955        0.62443565571344        7.38460125034465
H            8.40780203054256        0.27651323774290        4.17822671770312
H            6.90331143324785        0.10247732973849        2.23150871612417
H            4.88887649129393       -2.15684484644386        3.27216900325550
H            4.24139869582388       -4.38157477340606        2.46965063777013
H            2.81707714075169       -4.58854947492121        0.47566413855937
H            2.05467933045776       -2.58372051437856       -0.69412586700574
