64
 energy: -14.741741242386 gnorm: 0.000796353399 xtb: 6.5.0 (97a52f5)
C            1.00436357308702       -0.37659690989377        0.08104688749909
C           -0.20121678470813       -0.35976191276866       -0.12605610583844
C           -1.58906724936303       -0.35538800246007       -0.36096131867521
C           -2.32858307090409       -1.52523982071337       -0.39891703254837
C           -3.68235062830715       -1.46424106829486       -0.62919203565579
N           -4.36474613003209       -0.34797784384364       -0.82364715690933
C           -3.65003334647273        0.76431335931304       -0.78583561741586
C           -2.29442152654347        0.81836312888169       -0.56476949361535
C            2.38804013022225       -0.41520989040074        0.32264035813828
C            2.87560183934149       -1.49936774507059        1.06829551126050
C            3.31239809915668       -2.43412112584880        1.72494942895004
C            3.86950787804926       -3.48290155173572        2.47951112343328
C            5.07807007587047       -3.33830026097105        3.13923071745643
C            5.58464558578339       -4.39026076798751        3.86408703399735
N            4.99924889989981       -5.56959947093660        3.99083175943405
C            3.84559355514541       -5.69853635817801        3.35657603947593
C            3.24892330518483       -4.71382423939765        2.60571204848116
C            3.15389193751338        0.59653277059849       -0.15082646066555
C            4.59461605309721        0.77082285528346       -0.04358074559217
C            5.46824352485911       -0.24561881274487        0.34924397026308
C            6.82398420339529       -0.03991378722058        0.40689570920221
C            7.38627328269648        1.19754541304509        0.08102868864417
C            8.83085812356066        1.35279500822639        0.14672997332626
C            9.57323948731036        2.47564388632906       -0.00253552273881
C            9.04940993175468        3.75708967753951       -0.23143085565884
C            8.59318772301841        4.87626193334354       -0.41906339645779
C            8.02639982383344        6.14765064490176       -0.62403481411932
C            6.84730383541326        6.31747138267584       -1.32960748446725
C            6.32891261150005        7.58046366246859       -1.48788302601408
N            6.87543223844566        8.68592166020103       -1.00951713010469
C            8.00220785992025        8.51401989687150       -0.33839940430272
C            8.60702522313050        7.29908734629887       -0.12064173462671
C           10.97062139676606        2.36574082188350        0.09907710154959
C           12.18649707616747        2.26891346008260        0.19414781502488
C           13.58480392289677        2.15938674320668        0.31346145639452
C           14.41345854176516        3.26828331476686        0.29161474820613
C           15.77234754360909        3.10171987672047        0.41473309689873
N           16.37963083244023        1.93535407480359        0.55740095211963
C           15.58022070682018        0.88176041711300        0.57717085278907
C           14.21147718869454        0.93370510134862        0.46163356074110
C            6.51240086997840        2.21282148895840       -0.31418259405619
C            5.15698566898429        2.00576467067780       -0.37863170905974
H           -1.83542314636751       -2.47018809676499       -0.24753578663834
H           -4.25139180567287       -2.38171345364573       -0.65731220773377
H           -4.19282820403300        1.68475125701146       -0.94243805639388
H           -1.77404773186300        1.76066232086300       -0.54763178746787
H            5.60766320248844       -2.40297554902826        3.07872236011010
H            6.52765450491283       -4.26807093910835        4.37605942467715
H            3.35495787721591       -6.65600608008751        3.45051131364900
H            2.30592469918342       -4.88618728275021        2.11581091154768
H            2.63308424032971        1.38213370055479       -0.67166152764123
H            5.07474684534560       -1.21136172850966        0.60112305220189
H            7.47438551357168       -0.84319785251287        0.70807585126720
H            9.37971143628863        0.44766030702258        0.34465490912842
H            6.34814940975396        5.45994834134636       -1.74708250986639
H            5.40811418310360        7.70365319902355       -2.03859983706370
H            8.46156591355535        9.40720152973680        0.05843049541719
H            9.52492167186208        7.23014113605311        0.43770142911009
H           13.98479525413182        4.24927344569956        0.17789961345515
H           16.41113103168302        3.97235031629506        0.39650954704836
H           16.06029254982546       -0.07868307533759        0.69300057029437
H           13.62027484815840        0.03427044122838        0.48484129164945
H            6.90718056180603        3.17351682638022       -0.58141627096280
H            4.50742340305521        2.80579807140987       -0.69010804810422
