49
 energy: -10.209292100797 gnorm: 0.000646943714 xtb: 6.5.0 (97a52f5)
C            0.83035577376825       -0.12907189640689       -0.08434411347904
C            2.37255748270167       -0.08940014392711       -0.08227024886935
C            2.90684194697178       -0.17146175045541       -1.52656631277047
C            2.82477543784725        1.24443160658810        0.52845649238481
C            2.42092648565040        2.43688359907718       -0.05379337101020
C            2.80911215465397        3.65907279013134        0.45692169786394
C            3.61970915788305        3.71060751660242        1.56964487915153
C            4.03296119920123        2.54133368633189        2.16173595542802
C            3.64597647780872        1.29934955416899        1.66117966788925
N            4.09389697386803        0.11387262592565        2.30723845552390
C            4.95212683910760        0.21430158103430        3.46804643311126
C            4.41301972086499        0.43776690165161        4.73507665192436
C            5.23065628127593        0.54638113597938        5.83207919212746
C            6.61490805807462        0.43702915053885        5.70647368132793
C            7.48957825945938        0.56232208456661        6.88241896527976
N            8.80656267886795        0.47682351960126        6.66438126978960
C            9.56381154645944        0.59756669683443        7.73066268008812
C            9.05405951799140        0.79476003551284        8.98415555942187
C            7.69268260399702        0.86278044451063        9.09405737157255
N            6.88796786094859        0.74988627346459        8.06233552666064
C            7.15069397969904        0.20946875035972        4.43970434951436
C            6.33648366327437        0.09908554322381        3.34023079637634
C            3.70534459434894       -1.16789790873336        1.82861948038256
C            4.13845048372830       -2.31038679939663        2.49931657074973
C            3.78541206097636       -3.56725760139770        2.06993776580477
C            2.98808155668373       -3.70573479384290        0.95500389664439
C            2.54947706700932       -2.58385999800933        0.28102915321704
C            2.89078584731326       -1.30571573864725        0.69804554769150
H            0.41169530488868        0.70096165828005       -0.65072730694089
H            0.44812944815392       -0.06792008776696        0.93386661627907
H            0.45655028420681       -1.04981223857426       -0.52867601459941
H            2.54608931252205        0.65908852521151       -2.13101756234577
H            2.59432392020828       -1.09353566319747       -2.01378380370423
H            3.99574583524203       -0.14173330079591       -1.53026396022079
H            1.79178494749909        2.41060702296515       -0.92622018072110
H            2.48004591784516        4.57107308089555       -0.01372736942385
H            3.92795397945127        4.66105165126865        1.97368947879188
H            4.66796355509214        2.57744115927993        3.02879777400018
H            3.34517034230092        0.52337964793729        4.83539470886652
H            4.81250421662816        0.72022966520543        6.80762071301224
H           10.63266197101709        0.53720712579119        7.58897541441439
H            9.69467391089373        0.89084303415277        9.84514430692908
H            7.23823241305930        1.01599116815721       10.06158385102021
H            8.21793128346047        0.12342170867557        4.33729340626875
H            6.75330752094618       -0.07247823778055        2.36328454445999
H            4.76007524803774       -2.19775551916226        3.36963039610427
H            4.13071641009532       -4.43853969748123        2.60220697921568
H            2.70722110858620       -4.68762877264289        0.61058842404308
H            1.92803735944333       -2.70604879571277       -0.58881840924222
