96
 energy: -20.471076861959 gnorm: 0.000326102206 xtb: 6.5.0 (97a52f5)
C            0.68837208722451       -0.50162188827647        0.21777841919384
C            2.10150744759072        0.11161847289410        0.13250770549356
C            2.35721038952090        0.65817938608499       -1.28691993636522
C            2.18807747146005        1.27780991239994        1.12605013381587
C            1.30624202495388        2.34187822698252        1.00665744513009
C            1.33065726100876        3.40422320872177        1.88719398120838
C            2.24576107890862        3.41801452117093        2.91660345181975
C            3.13165950926945        2.37608390233638        3.05125496995792
C            3.12893927034817        1.30042906190201        2.16367887449054
N            4.06757013311849        0.24410341350590        2.33459763891784
C            5.05056623031659        0.32283624928293        3.39114651679576
C            5.01237505094012       -0.56394248940262        4.46901410427252
C            5.97039833480348       -0.51536402314352        5.45029090208936
C            6.99409499836377        0.42755588112224        5.39397845236611
C            8.03596040509819        0.47254657696063        6.40948943488004
N            8.15436975909780       -0.37687867522164        7.43646661513510
N            9.20879477794137       -0.04183064856678        8.11912144194402
C            9.76653582362955        1.02898459813869        7.53810711857253
C           10.97889450830588        1.67762834249322        8.02399779839749
C           11.77879078181737        0.99259381681148        8.92436510309443
C           12.97452495721492        1.50755916838556        9.39730864775481
C           13.77112951589673        0.70953558480959       10.35918334305962
C           14.19549046225269        1.25207275221780       11.57151246298583
C           14.93577010402496        0.50252418840549       12.45861958237277
C           15.26314057253618       -0.80423468655614       12.15627717115487
C           14.84587899171049       -1.36069689729861       10.96357592863993
C           14.10535827779624       -0.61378515585653       10.07413910247968
C           13.39898556063622        2.77840598064943        8.94809963134296
C           14.69000038253948        3.34504636576573        9.41231013686057
C           14.73549366427112        4.55793294265008       10.10096883530612
C           15.93556755002469        5.08306697258068       10.52488483968273
C           17.11416921543963        4.40918237899219       10.27277287926297
C           17.08944906296904        3.20653767119818        9.59465515330414
C           15.89157745468255        2.67892407532097        9.16749475706209
C           12.59102786646961        3.50194470199412        8.04474609991112
C           13.02347337279803        4.84262407888864        7.57289206428765
C           12.28860403337478        5.98328899459043        7.89395216061190
C           12.69323905583485        7.22616610414263        7.46088624082257
C           13.83837723711697        7.35530775736817        6.70039381388596
C           14.57858851171474        6.23667044418163        6.37285640298140
C           14.17635767761184        4.99192022739196        6.80307141074294
C           11.37571382245006        2.95673781507084        7.58010049901417
C           10.53184874794570        3.73220034913469        6.63509072750486
C            9.29387827114008        4.23891599044196        7.03284221559710
C            8.51323391399542        4.95818890934740        6.15621597713964
C            8.95221040343316        5.18986557118418        4.86771165809001
C           10.17678522247655        4.70076104128340        4.45785659287084
C           10.96043649810530        3.98023574090058        5.33087624517926
O            9.04383359140863        1.38471590213499        6.43977619033127
C            7.02284492960040        1.32766619767548        4.33194053542474
C            6.07115348788480        1.27451520958154        3.34487642415382
C            4.05355831253957       -0.88666589041688        1.46922810581894
C            4.98789858954845       -1.90648161174191        1.64914066065247
C            5.00747835044382       -3.01323955042980        0.83483199512792
C            4.09068375679990       -3.12169135975178       -0.18723760177389
C            3.16718327505353       -2.11611669903766       -0.38814926942336
C            3.12972244784355       -0.99011745488383        0.42123467440133
H           -0.08002260466922        0.23762221031728       -0.00187885876458
H            0.50363433153491       -0.89117025017048        1.21816800911422
H            0.56647177455578       -1.32040316360881       -0.48923802978870
H            1.63723130062536        1.43095200728213       -1.55100991263340
H            2.28403391270093       -0.12954753140413       -2.03493207864216
H            3.35451173213241        1.09156536559598       -1.35214794781563
H            0.58354339546845        2.34009256665452        0.20947499600892
H            0.63328112651149        4.21797363579230        1.77254032943821
H            2.26732445022465        4.24164732129797        3.61147568654209
H            3.84169540380449        2.38366525949810        3.85854571569943
H            4.21997561334710       -1.29053522738494        4.51357216868296
H            5.94491891539138       -1.20783284241164        6.27327007192437
H           11.45970526929944        0.02345043236145        9.26160574895204
H           13.93831970851318        2.27073239077621       11.80498249248438
H           15.26078396129027        0.93735697713779       13.38970777234148
H           15.84323375109582       -1.38972188636850       12.85083062179247
H           15.10094119946553       -2.38093874282465       10.72735651785001
H           13.78508117458994       -1.04329312754471        9.14047000597466
H           13.81479443593683        5.08015784997764       10.29587500937250
H           15.95481991203625        6.02221082200306       11.05332075985344
H           18.05279387461410        4.82136321108227       10.60541969223821
H           18.00920431309178        2.67978460093133        9.39926540225927
H           15.86814781260039        1.74223822367714        8.63776785274920
H           11.39789114011093        5.87779040982694        8.48897395405970
H           12.11519365160902        8.09915326416408        7.71655367114323
H           14.15457883888839        8.32894453662549        6.36317990073845
H           15.47332026486731        6.33775389473384        5.78055585768982
H           14.75080663468939        4.11713896695189        6.55143489994947
H            8.95347815373036        4.04953953753305        8.03632665095486
H            7.55654367161022        5.33823863854475        6.47553693756289
H            8.33921408498968        5.75219496492609        4.18233060239962
H           10.52001272265831        4.88341343216221        3.45262237302133
H           11.91525450436217        3.59598737954493        5.01574247149829
H            7.80778611194938        2.06358857527090        4.29896838160416
H            6.10363450945293        1.95972653773537        2.51593130929023
H            5.71094937740619       -1.81790053207604        2.43967965611261
H            5.73623843837445       -3.79122924143653        0.99425776775106
H            4.09796713009878       -3.98635875377449       -0.83064846874294
H            2.46289150968803       -2.20719336981442       -1.19648445661090
