76
 energy: -16.366424231443 gnorm: 0.000473851150 xtb: 6.5.0 (97a52f5)
C            0.82841622309893       -0.13229317269253       -0.20504121073639
C            2.34998484593921        0.11804722385649       -0.24943181514790
C            2.82187028050879        0.26021499186267       -1.71104485080858
C            2.64933581858671        1.42970529268379        0.48884918777707
C            2.06828460337150        2.60941272763072        0.04733741979299
C            2.29130215469632        3.81039138737352        0.68951673386875
C            3.10532204206696        3.85124550211450        1.79991156197040
C            3.69385449549218        2.69493123978307        2.25297574650514
C            3.48832717179148        1.47530782972946        1.60938273483475
N            4.12335868689543        0.30234252377857        2.10540236450145
C            5.02172397522857        0.39731224145761        3.23404660267884
C            4.67736095920055       -0.15641129698785        4.46759852527982
C            5.54563082860465       -0.09425679618273        5.52881071772955
C            6.78345525603794        0.53114045121910        5.39708346268621
C            7.71839617715217        0.58432304750544        6.51330551015576
N            7.54152333315014       -0.03951692038458        7.68219875839325
N            8.57319569449482        0.20661400335112        8.43542594865806
C            9.41238249588759        0.99168754847778        7.75288269836562
C           10.68908104107759        1.47789546962178        8.26025735046598
C           11.42895794713091        2.40269998168380        7.52870918346151
C           12.63712340679287        2.85897742181043        7.99751843471897
C           13.14679839822103        2.39838044492972        9.20820107167515
N           14.41587362211965        2.86686082910863        9.69474305555401
C           15.49852895904503        2.06053417177344       10.10407843246194
C           15.64953234228411        0.67420247720455       10.12122814968239
C           16.83739547093360        0.14408706465433       10.56194179265347
C           17.88235321042666        0.97069806086992       10.98585401952391
C           17.75279714099975        2.33846501002954       10.97036337692105
C           16.55157499622193        2.89237040228436       10.52271298840388
C           16.10509141156188        4.25674935129625       10.37458036884120
C           16.71554202937099        5.48195741202574       10.65077672173476
C           16.01145858463311        6.63753736229878       10.41269923702052
C           14.70888048489797        6.59491194608856        9.90638367630958
C           14.09521934388077        5.39764987764959        9.63026305184701
C           14.79675806610519        4.21480344345768        9.86192399922069
C           12.40789286819136        1.47274621461363        9.93926873682253
C           11.19629449729139        1.02243991416807        9.47479326090557
O            8.90132380127693        1.26136094669510        6.51824045376559
C            7.12367118526410        1.09596746166426        4.17084647460529
C            6.25988295710692        1.02779205100358        3.10605755778629
C            3.90514329518469       -0.96048910032757        1.48568429494651
C            4.55187490197087       -2.09274149266522        1.97971631656051
C            4.36405598992350       -3.32997481196261        1.41193659715917
C            3.52421863915259       -3.46042969243660        0.32813889600249
C            2.88565345956131       -2.34816375572844       -0.18130460221129
C            3.06163911729943       -1.08961092027410        0.37508286545120
H            0.27703835201821        0.68877034585954       -0.65992501946234
H            0.49089681242792       -0.23333484856407        0.82567936571812
H            0.55920931255290       -1.04283655606013       -0.73744757727211
H            2.32690456773133        1.09175039054592       -2.20969234301361
H            2.61151739340752       -0.64020306948205       -2.28564831431161
H            3.89596425775311        0.43800805715393       -1.74673266691137
H            1.42577027385881        2.58942542461254       -0.81546902929116
H            1.82765026934969        4.71271241701410        0.32561267656438
H            3.27951346433769        4.78458277616745        2.30991447999818
H            4.32410321231292        2.72441778707900        3.12357524917192
H            3.72026304735727       -0.63707810072082        4.57074114682564
H            5.28144718915629       -0.52974371940667        6.47639121992401
H           11.03777818051008        2.75360365787117        6.58937407239164
H           13.21153169537401        3.56814754974240        7.42775513554576
H           14.84494475686462        0.04494638209790        9.78545556677719
H           16.96783843464551       -0.92540704406104       10.58014174404095
H           18.80314406085273        0.52707538810903       11.32717868409377
H           18.55321693758538        2.98124833446260       11.29141357055943
H           17.71640167706027        5.50609433881358       11.04401918091618
H           16.46757445233883        7.59118433013809       10.62165266440531
H           14.17823080434837        7.51653111719969        9.73258162795996
H           13.09061034751512        5.35684770299198        9.24926386984798
H           12.79675077408931        1.12354036327284       10.87967627874573
H           10.62548599652628        0.30839980552367       10.04198804505846
H            8.08029725539016        1.57878420043197        4.06983240934100
H            6.52889439370222        1.45165343786273        2.15441854734369
H            5.21408065946006       -1.98959489445070        2.82025370734913
H            4.87078275437987       -4.19302323669646        1.81191140183433
H            3.37003044378794       -4.42703410930710       -0.12291251547774
H            2.23942601318493       -2.46150359432381       -1.03405903738833
