85
 energy: -17.684998708639 gnorm: 0.000472804649 xtb: 6.5.0 (97a52f5)
C            0.52680490432710       -0.31166706294496        0.15096928408787
C            2.05162820504965       -0.11761430732514        0.01835347063081
C            2.46234813725935       -0.14678053529112       -1.46785917752754
C            2.42186001058764        1.25473143466164        0.59726581166448
C            1.84296107446819        2.39882040088887        0.06765813341547
C            2.14051204507050        3.65401425519215        0.55854346802054
C            3.03122650363389        3.78739243222582        1.60094800251980
C            3.61861229292119        2.66748214329175        2.13930533251827
C            3.33412253370139        1.39294113532204        1.65087927165149
N            3.96364985863128        0.25917497479338        2.23672419767371
C            4.93152737303296        0.44568432849875        3.29475436927993
C            4.62315194944637        0.10775020623794        4.61298953203355
C            5.55169463108584        0.26750640090360        5.61159184310013
C            6.81787750115186        0.77430544426115        5.32710049643168
C            7.81698502029738        0.94062017481611        6.37377339708503
N            7.64087385456914        0.62832091430003        7.66164757191001
N            8.74122370963360        0.90356888711461        8.30156011528143
C            9.62278104369332        1.39511283910663        7.42513918240033
C           10.97507729126790        1.82816395061419        7.74933785407742
C           11.79655119806539        2.34053017486439        6.74875923347188
C           13.07003705486151        2.76269411847896        7.03722614760564
C           13.56651817446323        2.68408602731150        8.33831878328846
N           14.90521161140113        3.14168059537224        8.63727760303067
C           15.09028696144509        4.37744648224972        9.31857679616125
C           13.97889989734973        5.09243609247513        9.76315616165090
C           14.11526497023703        6.29621701506594       10.41207321364350
C           15.37358445091440        6.81355389889386       10.62800549448026
C           16.48412832071970        6.12125002245008       10.18940667073405
C           16.37008904601902        4.90483656924208        9.53224952926291
C           17.63676399625167        4.18526838945500        9.04866838060874
C           18.37498253933066        5.10732395882778        8.05669674429046
C           18.53215139767956        3.89655345944671       10.27105303147427
C           17.33192129523087        2.85706007584283        8.34267961722731
C           18.37726768671087        2.08408807554559        7.85859255274424
C           18.15249383667515        0.87919344272786        7.22392865932799
C           16.86355387706713        0.41996594726118        7.06405787898493
C           15.81254397452811        1.17031629036357        7.53449266968687
C           16.02179864537663        2.39329809135000        8.17050601335682
C           12.74516105671299        2.16358596873210        9.33915897186690
C           11.46998850051395        1.74482751514059        9.04921849433922
O            9.07189729044152        1.43558229553598        6.17903198141184
C            7.12459755968990        1.11862008775033        4.01320914332079
C            6.19860140823080        0.95674808101715        3.01305534830000
C            3.66102155448588       -1.05610986168469        1.78518795280157
C            4.28846864950953       -2.15025181489428        2.37957077334582
C            4.02787697998582       -3.43543346315111        1.96824312776426
C            3.13206261902252       -3.65307707803412        0.94466534754144
C            2.50816276574446       -2.58061771895276        0.34001543488139
C            2.75536325452706       -1.27531221646151        0.73963076342474
H           -0.02109872273522        0.47284716192388       -0.36810669683146
H            0.23176909316561       -0.29073418653721        1.19935475459565
H            0.20886427114074       -1.26467058039736       -0.26830675754212
H            1.97305002028638        0.64654021947162       -2.03049634161987
H            2.19711271787516       -1.09401313917743       -1.93449052806074
H            3.53907036839645       -0.01353243864100       -1.56620281990877
H            1.14597807015914        2.30795614747147       -0.74701867643764
H            1.67679988294202        4.52690352563919        0.12879326827647
H            3.26630224682547        4.76419883751818        1.99117154861238
H            4.31071156323741        2.76929689102475        2.95590679054538
H            3.64450858241418       -0.28186646161172        4.83232649061993
H            5.31338213973980        0.00107660075794        6.62625841355451
H           11.41342363560604        2.40247375553550        5.74483892931990
H           13.70238628401642        3.16467156763706        6.26507448186335
H           12.99704949033329        4.69093605590497        9.58822938968820
H           13.24323405365307        6.83273375871461       10.74883713819143
H           15.49008528268401        7.75748229064963       11.13500874701700
H           17.46128058860160        6.53827927596859       10.35957414203798
H           18.63904033722014        6.05738036129684        8.51812464915739
H           17.74487870356273        5.31674783771794        7.19310767257747
H           19.29504307826512        4.64925511638552        7.69765163977602
H           18.80035690067363        4.81360016935151       10.79287468534122
H           19.45729558580048        3.40281693426702        9.97862443196898
H           18.01339605329488        3.24827377060373       10.97622139549963
H           19.38875093832023        2.43039125293963        7.97983061200635
H           18.98262214862478        0.29848094967889        6.85611461288961
H           16.68074687098363       -0.52152969480756        6.57229004853984
H           14.80582613844519        0.81155322671188        7.41540698991501
H           13.12947028357697        2.09581157715749       10.34191354513567
H           10.83692877259705        1.34719749733061        9.82286852541055
H            8.10279735738509        1.51111324132890        3.79518182020275
H            6.43844308565943        1.21720213520231        1.99700339205555
H            4.99245024127263       -1.97877775642013        3.17386430818818
H            4.52205486433798       -4.26754878047567        2.44266149735724
H            2.92237233211332       -4.65750508253073        0.61479980423782
H            1.81746822652368       -2.76314057648068       -0.46454658043326
