86
 energy: -18.230604133557 gnorm: 0.000479459910 xtb: 6.5.0 (97a52f5)
C            0.78106287250196       -0.01299979868814        0.10624252092654
C            2.32020213154090       -0.06637749300965        0.20696879373452
C            2.93471286622506       -0.30160385063052       -1.18725365259511
C            2.82291095170639        1.28339559579334        0.73731395552823
C            2.50291632869443        2.44733270318391        0.05391619503599
C            2.95504929925840        3.68130711004497        0.47461402623752
C            3.75156409198273        3.77244408108380        1.59435513374567
C            4.08497976100698        2.63171561104055        2.28397153512150
C            3.62763575607078        1.37813773786899        1.87998574610451
N            4.00944303737690        0.21830616117742        2.61336870415931
C            4.99720327256329        0.32294569807970        3.66325915802168
C            4.69966104820612        0.93797354388020        4.87998547064093
C            5.65521174563652        1.05569846925990        5.85733378202400
C            6.95027174366516        0.56260136437086        5.66590726893081
C            7.96786958864025        0.69237478894493        6.72959486873143
C            9.28413812906846        0.98455720721776        6.42485620473826
C            9.71176783239273        1.27641938331595        5.13464941635573
N           10.08684089279283        1.52627397981757        4.06060470931377
C           10.29391327147964        1.01170911452642        7.37988096324643
N           11.15312434922987        1.03555060710291        8.16596969538482
C            7.53024478349408        0.49948420698801        8.12737258450530
C            8.02586658614615        1.28991801448666        9.16860562654094
C            7.60996715942071        1.10238428063594       10.46132936952303
C            6.67065483604368        0.11979235381545       10.77364676346932
N            6.25586683274840       -0.08074957704505       12.14361680335500
C            5.50845596871364        0.93680288027791       12.80124524116022
C            4.99348973382732        1.99796949398022       12.05813044402789
C            4.28120636625560        3.00969702060628       12.65589914528718
C            4.06923696608841        2.98017751132579       14.01657090122402
C            4.56494881406237        1.93218008229015       14.76523896638073
C            5.27774889312297        0.89518473510619       14.18166876266194
C            5.79914481653062       -0.25297652944654       15.05597404861371
C            6.82432906808102        0.32144442097870       16.05353204649746
C            4.60785879816620       -0.87283910406856       15.81686641932736
C            6.48474093502948       -1.35552745190896       14.23712935983126
C            6.95216458507938       -2.49252953713807       14.87974284455087
C            7.60287545500076       -3.49664563791306       14.19244265215105
C            7.80809948020751       -3.37470332069390       12.83614391209796
C            7.35916321750191       -2.25390831261935       12.18017788143818
C            6.68923918554644       -1.23530572511564       12.85650684893604
C            6.15118877596245       -0.65589914407996        9.73649500275051
C            6.57322700063787       -0.47048047987644        8.44432203691190
C            7.23243205666763       -0.07577817373945        4.45446971020911
C            6.28060908119907       -0.18944939590946        3.47448020333299
C            3.50936596317977       -1.06416348217292        2.25058804935635
C            3.81642376083445       -2.16909891663542        3.04333161760538
C            3.36607457078005       -3.42687574470256        2.72165075970084
C            2.59485314569733       -3.60529875189386        1.59447013363851
C            2.27471261694703       -2.52049120307487        0.80380175648917
C            2.71123807644256       -1.24088564729630        1.11374478345024
H            0.45218707151781        0.78475972176103       -0.55716885120737
H            0.34289191231044        0.16352211598125        1.08766246456947
H            0.37377048577657       -0.94528613696340       -0.28053499247028
H            2.66273339772594        0.49361172321537       -1.87936267348554
H            2.59659391529118       -1.24375611223592       -1.61537449104077
H            4.02157149666656       -0.33303420153002       -1.12183055918763
H            1.89455127142327        2.38815101425465       -0.83149278573120
H            2.69085447506440        4.57038862711795       -0.07422908454440
H            4.11321000215501        4.73202215128977        1.92610000516516
H            4.71735647072729        2.70225715665738        3.15012287958193
H            3.70577093241629        1.31880790402129        5.03792020190535
H            5.41720921163266        1.54177884617447        6.78759856616563
H            8.74254381184807        2.05969177596341        8.94345547555599
H            8.00861521993654        1.70663039680697       11.25743854500371
H            5.15801730869292        2.01654912885676       10.99558929884790
H            3.89262911272045        3.82237655749132       12.06417792136697
H            3.51658201121336        3.77230824651564       14.49469708428043
H            4.39741567311395        1.92418803478117       15.82799647147022
H            6.38045991045541        1.09807185225370       16.67417752164768
H            7.66779062145466        0.75830042957741       15.52030066734295
H            7.20966876086646       -0.45275607631077       16.71498865259841
H            4.09981369163734       -0.13368667689275       16.43342589280245
H            4.92965210314571       -1.67775346581830       16.47498765306201
H            3.88179525877310       -1.28181023077222       15.11551030432789
H            6.81452155371760       -2.59173370930123       15.94217229455941
H            7.95526896454280       -4.37022973790311       14.71606022155320
H            8.32096937475660       -4.15202856633750       12.29355340387693
H            7.53297064593642       -2.15269902924010       11.12446042466605
H            5.41193869072764       -1.40252963018493        9.96857768891324
H            6.17312548065963       -1.08221327467750        7.65439705201219
H            8.21442864476855       -0.48589552697038        4.29779351122853
H            6.51232202486891       -0.66949990058690        2.53975190119424
H            4.41552228120049       -2.02639229782190        3.92485140746462
H            3.61652972860367       -4.26879844067659        3.34617306584715
H            2.24160556738119       -4.58901537189923        1.33175273251414
H            1.67552641680475       -2.67442817613657       -0.07647904227204
