61
 energy: -14.050422355793 gnorm: 0.000833886859 xtb: 6.5.0 (97a52f5)
C            1.14927692230505        0.15273974732394       -0.11962518626560
C           -0.05388040880904        0.09166695974643       -0.33650605248707
C           -1.43688445861034        0.02101931305738       -0.58155545715523
C           -2.07662385671798       -1.18233329924778       -0.82651667913673
C           -3.43097199905014       -1.19404406794989       -1.06075082452338
N           -4.20352986396616       -0.12049664735428       -1.07317406378121
C           -3.58395745700463        1.02419278471039       -0.83783922862138
C           -2.23760528060551        1.15062412843986       -0.59182122647454
C            2.52641779627368        0.21912669203490        0.13045856358357
C            2.94476249823172        0.88463356768064        1.29095811170607
C            3.35230205957546        1.47068038818360        2.28586972457017
C            3.87174313778344        2.14920751228506        3.40369126059268
C            3.07880905728354        2.96933636683316        4.18858440727197
C            3.63243697336581        3.62105119092531        5.26470557780359
N            4.90047033092504        3.53204356767428        5.62957606272201
C            5.64966344470128        2.74908213434985        4.87594996340292
C            5.20190113883950        2.05067057129796        3.78028212541194
C            3.38017236742526       -0.34703471689778       -0.76521706171955
C            4.80624010746244       -0.39231561811848       -0.68475883128701
C            5.59963356230902        0.06466269587950        0.34129748986028
C            6.96996778677099       -0.11552359482113        0.13719472497804
C            7.29602284511835       -0.71746449016624       -1.05710541500085
C            8.59836390760957       -1.02800867079335       -1.56094229129152
C            9.79477517600964       -0.80684366777619       -0.95081853226116
C            9.90765393940416       -0.22900322625913        0.32032356857419
C            9.85162257981189        0.28040312004697        1.43235863280103
C            9.52466756282183        0.85820644883075        2.67304532637688
C            8.91885732495920        0.11850134209870        3.67471035766014
C            8.55010246128206        0.73701137612112        4.84486660990151
N            8.72063155113046        2.02261660954059        5.10289923989045
C            9.30428168156250        2.72018244681613        4.14286691564938
C            9.71368456853114        2.20405192380958        2.93659881958762
C           10.97221877544682       -1.16705007793604       -1.61927006731453
C           12.00098115661686       -1.46956227578225       -2.20955860114185
C           13.18581212396787       -1.80505422643148       -2.88868173298542
C           14.02910510774411       -0.83837496123108       -3.40995943589155
C           15.17596506875656       -1.22075704070759       -4.06378701274128
N           15.55851202400612       -2.47380143574577       -4.24519771700552
C           14.74663521261840       -3.39036448532449       -3.74496973652797
C           13.57750957200427       -3.12000575155722       -3.07480381147633
S            5.82563355717296       -1.06833796991043       -1.92953349225941
H           -1.50643086850585       -2.09552422945383       -0.83021313374603
H           -3.92224692075043       -2.13679458479489       -1.25125174001222
H           -4.20133513711537        1.91031663663887       -0.84493539836887
H           -1.79733048163608        2.11542199401585       -0.40656500750119
H            2.03665699093234        3.08929897703737        3.94631238516131
H            3.00640201462961        4.25998390127394        5.87018411009650
H            6.68655209463272        2.67356086004526        5.16684041695360
H            5.87722401160007        1.43206623023536        3.21571338825787
H            2.94441536192149       -0.81286591653826       -1.63236430779837
H            5.20571768419362        0.52170982607195        1.23073871087596
H            7.69717221532266        0.19722898384299        0.86378063808915
H            8.62420629103960       -1.48335352106813       -2.53608315088011
H            8.73230051585565       -0.93087333619588        3.52235901613803
H            8.07875950236043        0.15290307209370        5.62131032631069
H            9.44943005920197        3.77205485812949        4.33955577051242
H           10.16830911446876        2.83329308849135        2.19077222062624
H           13.77749679693466        0.20226261861308       -3.29706515806234
H           15.82822827841172       -0.46035321793119       -4.46714978495261
H           15.04449945120151       -4.41873362072357       -3.88657768630830
H           12.96240297464108       -3.91643728225087       -2.69224664661399
