83
 energy: -16.962587866090 gnorm: 0.000681112467 xtb: 6.5.0 (97a52f5)
C            0.86586344778924       -1.15119605606081        0.93374552849465
C            2.34436034877490       -0.88987642467811        0.58054837889763
C            2.61208544425202       -1.26540829092734       -0.89099560143378
C            2.63046318657485        0.60770356476133        0.76068697904933
C            1.91041505482169        1.53661020803802        0.02350485092857
C            2.12656988190546        2.89290489794312        0.16035823243493
C            3.07729647315818        3.34855957060408        1.04692055830934
C            3.80475085553001        2.44629060250871        1.78573623829821
C            3.60017309449010        1.07360914733699        1.65677269683241
N            4.37190780942800        0.17336014551714        2.44142799903631
C            5.38117719904408        0.69138044997710        3.33866729880344
C            5.13760913156509        0.77397549468898        4.70837764030317
C            6.11283635392004        1.24191725574731        5.56084158630374
C            7.33449141995458        1.63298730830384        5.06113078271234
S            8.61507869894641        2.21447342419730        6.17679958887115
O            9.26517602971307        3.45269755115125        5.59020919562934
O            8.09937319337750        2.25354827775348        7.60203720187800
C            9.69058250351450        0.79256213222675        5.96728100009482
C           10.83147789249207        0.90261107180279        5.20505373412607
C           11.64337886462456       -0.19385657789896        5.01822097187386
C           11.31722324329025       -1.41751891256908        5.59967753306908
N           12.15429133939127       -2.57704331113433        5.38521786334498
C           13.38555591684338       -2.69350957172266        6.08693864779321
C           13.74545556503374       -1.71391871942528        7.01087978150366
C           14.92746074880355       -1.79034788148306        7.70806667334619
C           15.77581628470038       -2.85443640704693        7.49447474851673
C           15.43075637140180       -3.83534138329550        6.58698691707014
C           14.24210469759050       -3.78030876167477        5.87364673154425
C           13.89852851027599       -4.90289287991544        4.88449513981016
C           14.99753609204137       -4.95515225220816        3.80373304556008
C           13.85004891614755       -6.23739597733029        5.65626428555450
C           12.54470724213693       -4.69098817633777        4.19206090073098
C           12.09362705407142       -5.62386454539639        3.26976483769334
C           10.89051594949469       -5.46748508712784        2.61174597180923
C           10.11008726537426       -4.36105309000449        2.86552138885624
C           10.53655365630519       -3.42407539055883        3.77590418514711
C           11.74624424548930       -3.57080656850308        4.45331387221892
C           10.16413038326628       -1.50848030801694        6.37695628020329
C            9.35757953991660       -0.40666007634488        6.55617082142373
C            7.58838878911726        1.56696600763387        3.70917506957278
C            6.62043204867893        1.09879197110845        2.84893799253243
C            4.17512435190899       -1.23190586174533        2.34772398383503
C            4.94901833503687       -2.08813244114511        3.12957509246934
C            4.78995352419259       -3.45174121157422        3.06612125741685
C            3.85131603581771       -3.98818935481067        2.21241112932573
C            3.08026813880732       -3.15376630395996        1.42878916533508
C            3.22253346638771       -1.77465737941331        1.47685237271880
H            0.19767080510056       -0.56225983645382        0.30783187551299
H            0.67217455571693       -0.88769447651357        1.97274831573897
H            0.60408597589906       -2.19918434209990        0.79859537475049
H            1.99273852041344       -0.68080674455430       -1.56903107901976
H            2.40125257348899       -2.31704527326186       -1.07726165509524
H            3.65514863099777       -1.08159600974971       -1.14544146170332
H            1.16422291461211        1.19357491004423       -0.67167703917813
H            1.55243684879154        3.59357626600532       -0.42353987458085
H            3.25083132538410        4.40632542122858        1.15946870909036
H            4.54757012899636        2.79842702613834        2.47858937415928
H            4.17988264990890        0.46167768073283        5.08595042895589
H            5.93486193401278        1.30082677507761        6.62157478921867
H           11.07384719905880        1.85000057637115        4.75345312662107
H           12.53214467689863       -0.12473735629457        4.41600363472620
H           13.07942956066855       -0.88654225899640        7.17762252944226
H           15.18907063228576       -1.02245458973194        8.41769903257891
H           16.70483473670479       -2.92185713196156        8.03658505868199
H           16.10067092859891       -4.66285618935808        6.43148872444017
H           15.97873753939369       -5.12615320770286        4.24305637206595
H           15.03416586785106       -4.01494061116343        3.25496885833117
H           14.81322594145566       -5.75472433690828        3.08832551195693
H           14.79827315430623       -6.44684076185789        6.14823224773917
H           13.63280488382875       -7.07257074034842        4.99277344666837
H           13.07478863401399       -6.20480675197086        6.42068599308416
H           12.69632011791457       -6.48986091923040        3.05858381248476
H           10.56331569557454       -6.20745112162662        1.89986113404343
H            9.17174289105730       -4.23029324953845        2.35168891818821
H            9.93188255209427       -2.55694559057867        3.97167516524846
H            9.91353206757265       -2.45273542877787        6.82747130569411
H            8.46123081716436       -0.47300944131126        7.15005225895813
H            8.55037976916801        1.87723335517770        3.33656091101128
H            6.80952121189056        1.03281627353291        1.79192070519565
H            5.68284553726560       -1.66657880435329        3.79271489744335
H            5.39540677603808       -4.09738361550297        3.68109359523123
H            3.72065263544922       -5.05648154482827        2.15579000167727
H            2.35182471508834       -3.58531782829102        0.76478445086895
