91
 energy: -18.785801750377 gnorm: 0.000561622837 xtb: 6.5.0 (97a52f5)
C            0.78432639734244        0.53401330203918        0.57124894213909
C            2.30946637482346        0.37042450640444        0.40936781398075
C            2.69696876619981        0.46610397448066       -1.08018543383713
C            3.00536650939584        1.51008351807985        1.16720694429502
C            2.73910208892922        2.82668904808620        0.82075790942963
C            3.34130886348393        3.88253142375049        1.47500544763278
C            4.23021831862901        3.63695348330350        2.49869301977684
C            4.51016154843547        2.34025865514886        2.85818567958276
C            3.91128893315186        1.26357497892736        2.20608993679751
N            4.22938872581543       -0.06275044438532        2.60658730059546
C            5.18392990184540       -0.27506733196756        3.67321430123187
C            4.74578726229413       -0.44126672365550        4.99036670161796
C            5.64833951731728       -0.64004310221821        6.01511522021579
C            6.98794020806245       -0.67181085929261        5.71931370956190
C            7.46774354541458       -0.51119171986593        4.41943891839730
C            6.54758120630039       -0.31120826122301        3.39200220776233
C            8.96036145318575       -0.56871525500640        4.26987876343471
C            9.67235384361243       -0.42117295564947        3.08117844887154
C           11.06360852599753       -0.48503759861547        3.08838823247559
N           11.80243039838123       -0.31214440847183        1.85623098242382
C           12.14079075837098       -1.45046626978675        1.07512249339500
C           11.77685581253003       -2.72054405406091        1.51939405017749
C           12.08244473481976       -3.84540063847862        0.79113623163378
C           12.76030953183891       -3.72029474495724       -0.40187519668564
C           13.12734413326935       -2.46905595615503       -0.85485642482051
C           12.83044686872048       -1.32007998099918       -0.13652943329499
C           13.25949939366197        0.04912422374914       -0.68307005592587
C           14.79449628052194        0.05707203971684       -0.83261721172273
C           12.59247240201265        0.25806881331089       -2.05781269274971
C           12.85266727921059        1.20974157393224        0.23609324914328
C           13.17386012305909        2.51152654420905       -0.11960613616597
C           12.82413667968258        3.58551617268503        0.67398837878519
C           12.13919958472483        3.37364646625468        1.85059109201327
C           11.81070993616806        2.09218849315958        2.22323741412910
C           12.15763802602362        0.99753553208057        1.43294485411444
C           11.73903311451219       -0.70138773218148        4.29311819382559
C           11.04345183371214       -0.84950928724655        5.47557321406405
C            9.67301210581211       -0.78273463491895        5.44960104383276
P            8.43852881791411       -0.89334901276728        6.74773918135515
O            8.45189136018135       -2.26823875440597        7.46699943051804
C            8.59333628307867        0.48157783545467        7.88803502800224
C            8.21633279655139        0.31530928681563        9.19856021111855
C            8.32128024904711        1.37755896575880       10.07950447895635
C            8.80110475165434        2.59449616298936        9.63405899442509
C            9.17374874699404        2.75374302957416        8.31303547452026
C            9.06699354027403        1.69023429075501        7.43467095607982
C            3.62644758305866       -1.18301864060533        1.97247238344753
C            3.95751659155003       -2.47025562754217        2.39251490957879
C            3.39899472563552       -3.57879000873630        1.80238799132637
C            2.49453118417099       -3.42004809786169        0.77517905471059
C            2.15792662837540       -2.15162728197534        0.34705651263603
C            2.70900223754453       -1.01856571911161        0.92747917091150
H            0.44533126014024        1.49685617178569        0.19267930707013
H            0.50527575072933        0.46883133446571        1.62223492493254
H            0.24175516344999       -0.23984897365182        0.03082394559045
H            2.41364200965923        1.42839310193335       -1.50337211694814
H            2.20795314647291       -0.30867042153676       -1.66838042437042
H            3.77350846742626        0.34999457423442       -1.20006568073586
H            2.04743111048608        3.03182613518353        0.02235343564518
H            3.11667486157903        4.89639774540396        1.18637439006770
H            4.70330179257452        4.45679389104296        3.01436067067424
H            5.20334984977702        2.14405964724590        3.65652655755492
H            3.68936503462740       -0.40884734418963        5.19111705230988
H            5.32023003250453       -0.76781693083863        7.03266853671330
H            6.88098207243401       -0.18219016196424        2.37988023688816
H            9.15710829022698       -0.25325912786795        2.15461180114209
H           11.24780569802251       -2.81318506209003        2.45101869028423
H           11.79339291205862       -4.81956011367061        1.15072294177531
H           13.00345253072610       -4.59711259803358       -0.97957645324747
H           13.65614408673306       -2.38481330636414       -1.78824177179224
H           15.13298210479974       -0.73522281005998       -1.49822963120830
H           15.27071400342120       -0.09139921801392        0.13582538108273
H           15.14944026136312        1.00221717875288       -1.24008731331243
H           12.86957843726414       -0.52850105915695       -2.75771868764445
H           12.88359228333568        1.20932858860796       -2.50022602848153
H           11.50771428913035        0.25218979604705       -1.95773423428835
H           13.70774806665273        2.69049339677523       -1.03658122530724
H           13.08598845548244        4.58712424178969        0.37419482493644
H           11.86268910410987        4.20780354924414        2.47474200464338
H           11.27613946470330        1.92203562322422        3.14066019908650
H           12.81386694022624       -0.74540610793222        4.28238928483279
H           11.55481540296559       -1.01096610573924        6.40929512348946
H            7.84553850157423       -0.64369691473842        9.52501677640181
H            8.02797678584134        1.25511360309860       11.10914172651006
H            8.88264596007350        3.42263972104653       10.31903899792614
H            9.54659537002470        3.70360362044350        7.96667500074792
H            9.35184839712788        1.79657210757894        6.39974431558879
H            4.66514053286668       -2.58954274175403        3.19340854507904
H            3.66737838977837       -4.56645110876747        2.14055278858078
H            2.05216745314667       -4.28406876388666        0.30671688877810
H            1.45261924316562       -2.04117237617119       -0.45810266872435
