82
 energy: -17.176774457707 gnorm: 0.000233440114 xtb: 6.5.0 (97a52f5)
C            0.69736569602357        0.11820592134511        0.05169747893990
C            2.23221583866424       -0.00727380132309       -0.03871508827746
C            2.66964093936396       -0.12558426442074       -1.51344316808243
C            2.86031995120865        1.26069842628525        0.55420136634685
C            2.57700870456191        2.49240791282183       -0.01710808032134
C            3.13741468156146        3.65849857771456        0.46246462264355
C            4.00514087750202        3.61074890814689        1.53076354100516
C            4.29737531078623        2.40142373958754        2.11400641023001
C            3.72992925658043        1.21494004043463        1.65107861208798
N            4.05611223119982       -0.01660854989822        2.28652535952754
C            4.93420789133290       -0.01948228780392        3.43293558945287
C            4.54017600095294        0.56051718214687        4.64204938582375
C            5.37923688204104        0.55079664456999        5.72611754860219
C            6.63625870607561       -0.04043301474506        5.65392067470437
C            7.04390093857751       -0.63348518095871        4.44681336878821
C            6.19185794369138       -0.60795819900334        3.35932307156786
C            8.35806149511160       -1.28710433426372        4.32421078199225
O            8.70879003399226       -1.78936677295603        3.26910733679029
C            9.22450186618457       -1.31787239807212        5.50877296768289
C           10.46109793221850       -1.95259382913834        5.45225076366616
C           11.28335014240048       -1.99634851398596        6.54849758996918
C           10.89819901385568       -1.39519370401353        7.75013734318163
N           11.75328655968073       -1.43942182151575        8.91295136381443
C           12.98676093426310       -0.72867413688789        8.90948059533368
C           13.34563914985854        0.02434920862991        7.79230889196490
C           14.52761633518499        0.72367060009171        7.74930503084233
C           15.37877507769807        0.68797753423486        8.83131745386304
C           15.03373328944249       -0.04240380400360        9.94996168517937
C           13.84452364362137       -0.75316037256613       10.01632963219479
C           13.49864047439832       -1.52580331181895       11.29596796906173
C           14.59412548970034       -2.58401022199572       11.54003846003769
C           13.45186255715867       -0.52876117663216       12.47239356308646
C           12.14352456495056       -2.23999055355823       11.20838066915748
C           11.69253441183719       -2.98083342984806       12.29080156559917
C           10.49321674069673       -3.66202111092386       12.25233307889524
C            9.71856451393247       -3.61791218912314       11.11464746167569
C           10.14541378608166       -2.88876984817256       10.03113951523648
C           11.34807682231510       -2.18370160828592       10.05703051861324
C            9.66393319751651       -0.75785258721122        7.80626138113110
C            8.82153427702887       -0.71403023588065        6.71207580325577
C            7.51586572694315       -0.04305893353104        6.82891295661559
O            7.17946651165293        0.48931610089653        7.87389020628659
C            3.51956663721953       -1.24492928004923        1.80631343595717
C            3.83626030919937       -2.43746394839260        2.45574146702740
C            3.34178008400744       -3.64355316712635        2.02133676153296
C            2.50911225001548       -3.68205599189163        0.92521075835036
C            2.17384979050964       -2.51001933319676        0.27887128557396
C            2.66065732432628       -1.28157249058565        0.70062295099338
H            0.33801018086918        0.99607218602401       -0.48234057744078
H            0.38524700513883        0.20636142361231        1.09152461806146
H            0.20161068569884       -0.75184178477189       -0.37518838127107
H            2.35587423114516        0.74166205014494       -2.09168104012974
H            2.24147747157968       -1.00761547379239       -1.98624570427586
H            3.75413635248048       -0.20076462975819       -1.58193691438688
H            1.90674240920731        2.54176694186596       -0.85730971298403
H            2.90077842153797        4.60275368295257        0.00006078156250
H            4.45210298621476        4.51641477754944        1.90702592833844
H            4.98254650642744        2.36344152373048        2.94154289767379
H            3.56481900965136        1.00979324586972        4.70783393249873
H            5.07515764236710        0.99944280522840        6.65600364813576
H            6.51044567983301       -1.05678450696486        2.43670457275247
H           10.75961113698957       -2.41469128283758        4.52715498635595
H           12.23373789859297       -2.49844117154272        6.50157941259955
H           12.67730601488542        0.06021546012764        6.95105002479474
H           14.78717269021788        1.29694936335661        6.87432998706214
H           16.30863854800470        1.23215078495500        8.80595300436209
H           15.70398104898358       -0.05691303546441       10.79151866798046
H           15.57727494852467       -2.12526416002902       11.62905473322683
H           14.62738793153643       -3.29233412799204       10.71323181541825
H           14.40855539842686       -3.14413994487433       12.45482156501106
H           14.40176840751117       -0.01101095064240       12.59284170728298
H           13.23133372627528       -1.03212031759027       13.41199522281727
H           12.67975671123621        0.22070883392277       12.30338606094466
H           12.29305646446518       -3.03045544909112       13.18217331141167
H           10.16600915859880       -4.23041301445812       13.10748171951017
H            8.78346711344848       -4.15231356472330       11.07446137059694
H            9.54456086032445       -2.86276812211043        9.14010073446079
H            9.35420500456435       -0.28950011428741        8.72216197170028
H            4.47773153929076       -2.40768235389649        3.31780286512112
H            3.60379086714542       -4.55388753841877        2.53538800494017
H            2.11759450620879       -4.62364802858975        0.57654375860628
H            1.51507864954699       -2.55227990063951       -0.57076691035950
