102
 energy: -21.422137373887 gnorm: 0.000826613914 xtb: 6.5.0 (97a52f5)
C            0.47483168701371       -2.45727101205039        0.63744003223017
C            1.88491773252497       -1.91845702865143        0.32228432641898
C            2.21613336239256       -2.13685697583046       -1.16847553905783
C            1.90529974508420       -0.41055727500535        0.60879621283219
C            1.05137889113220        0.43024070204088       -0.08944981077819
C            1.04792788190223        1.79424229028212        0.12077220278050
C            1.90932384968165        2.34702748553945        1.04274573027822
C            2.76210893651272        1.53268304211949        1.74827843032642
C            2.77422596218808        0.15278446953319        1.55125212352390
N            3.67946546276126       -0.65384881785276        2.29477484199863
C            4.61485971769423       -0.02836019807941        3.20203906575099
C            4.20507644483959        0.40313808830735        4.46951112782893
C            5.09065474584431        0.99208895691963        5.34185804746372
C            6.41469453428417        1.15759373513629        4.94897993834337
C            6.83180391010563        0.73105533641353        3.68313712563157
C            5.94469572101661        0.14237398458868        2.81710426121019
C            8.32414228508589        1.01852021034547        3.50481311506579
C            8.68142222065416        1.68746796321412        4.83906630894992
C            9.88457193851309        2.19177600983112        5.26786927305683
C            9.97912930909200        2.75884073573464        6.54006883380179
N           11.23789159119552        3.30492797930344        6.99228032795211
C           12.33593828215027        2.43174977704533        7.23079127143470
C           12.15875327024205        1.05426177874618        7.10909681497253
C           13.19317006472654        0.17773315603267        7.33100862363708
C           14.43235260056208        0.66385773134058        7.68466083629728
C           14.62311438269952        2.02413910685079        7.81704555726474
C           13.59310593186220        2.92719373994098        7.59845009116754
C           13.85564326209442        4.42971405915447        7.76817167915054
C           14.31711981658822        4.68627391164046        9.21718439420139
C           14.96196949681616        4.84703771231892        6.77740528741613
C           12.61091728338285        5.28451360382860        7.49363557956572
C           12.69368334674184        6.66539786284453        7.59783446019619
C           11.60972819349189        7.47790794643882        7.33441584562115
C           10.41123604833231        6.91657665548587        6.95325632851435
C           10.30631720626455        5.55074180703323        6.84547692052225
C           11.38802166619245        4.71453883779752        7.11851150273435
C            8.84353731863220        2.79840720061455        7.35920227088229
C            7.63481511340233        2.30147955502128        6.92971573047098
C            7.55003774772922        1.74264449813538        5.65907707777857
C            9.09531910425504       -0.29756934649593        3.35877289557402
C            9.48146572969569       -0.99112337028568        4.49943262317371
C           10.13578574734846       -2.20237027835196        4.41792238271037
C           10.40705288167783       -2.75415998209770        3.18530144181034
C           10.01081617545930       -2.08917344524406        2.04331010263316
C            9.35961542256082       -0.88072453937224        2.13101016449935
S            8.87061503655203       -0.12905910605675        0.58403553716169
O           10.00564727890713       -0.29509684801642       -0.41181058572662
O            7.49039816466831       -0.62410562202671        0.19636765094273
C            8.77086275910370        1.59480924644774        1.04822658692541
C            8.92486987484451        2.50975374542797        0.03270231466332
C            8.84443553298848        3.86230195499160        0.29254047365743
C            8.59682244990187        4.29028819000492        1.57821175783601
C            8.44134548997297        3.36818053056582        2.59183866205565
C            8.54246209658309        2.00326739819500        2.35142446031357
C            3.74422165649868       -2.05933825207792        2.08604669472076
C            4.65192159257043       -2.82115705280653        2.82040357618540
C            4.74040550409964       -4.18225951344211        2.65441826453636
C            3.91661605319820       -4.81177072803602        1.74738420243906
C            3.01131049326480       -4.07180703515102        1.01394311587650
C            2.90531877991879       -2.69698680122454        1.16406376674987
H           -0.28501809393292       -1.95136699096533        0.04442688620790
H            0.23687492639161       -2.30498250348633        1.68945079600626
H            0.40068010741583       -3.52276593520758        0.42744517882255
H            1.50613800483061       -1.62232770438683       -1.81356973393000
H            2.19192838055406       -3.19318100395807       -1.43036512781143
H            3.21192677543879       -1.75736737225062       -1.39428787422246
H            0.37679239543071        0.01113523627322       -0.81533142586761
H            0.37556091104716        2.42535820247994       -0.43694045768490
H            1.91475796106235        3.41188769154372        1.20897352373244
H            3.43904506399408        1.96157119355250        2.46513130804514
H            3.17709082045149        0.25999525240902        4.75224877894460
H            4.77563254584819        1.32257560286795        6.31587693808354
H            6.27023289880610       -0.18930760322476        1.84924800045510
H           10.74709694162842        2.15694311741631        4.62875625712219
H           11.19032751210374        0.67559478298190        6.83651188508126
H           13.03596173392116       -0.88352776402321        7.22915740801844
H           15.24983109937448       -0.01622106776701        7.85981473152724
H           15.59495581015065        2.39135736782426        8.09690515108951
H           15.21766087293180        4.12197123203185        9.45273537277324
H           13.54091866127009        4.38880756597839        9.92103693081146
H           14.53676990226611        5.73935824421446        9.38369715643751
H           15.87856104017136        4.28396774089637        6.94438288662561
H           15.20374500644393        5.90415930961342        6.87334471517281
H           14.63925489114241        4.66868666894987        5.75241994751159
H           13.62687572568837        7.11664756292020        7.88620867240864
H           11.70108779307594        8.54826692378547        7.42152028475098
H            9.56175077573226        7.54479735298894        6.74057745831691
H            9.37356257421236        5.11312744094047        6.53906175993027
H            8.93439674013837        3.23082854054149        8.34003946165310
H            6.76266618516117        2.33826858704080        7.55835001905995
H            9.25482146325349       -0.57492041130804        5.46531484723591
H           10.43005527672854       -2.71853273639061        5.31702820404488
H           10.91710018634887       -3.70077304287982        3.11304502712152
H           10.20422788329367       -2.51022927118733        1.06991515349802
H            9.10819381041944        2.15503822848133       -0.96867624863935
H            8.96711325633170        4.57665279232494       -0.50502778074422
H            8.52213706699653        5.34402565076308        1.79155964167441
H            8.23411102333738        3.70832851930284        3.59134326810377
H            5.29237035984707       -2.32711832460706        3.52887056097724
H            5.44987199612001       -4.75384948791759        3.23028605282404
H            3.97915978718547       -5.87896167937023        1.61069213275530
H            2.37314714171223       -4.57554567618565        0.30914991569469
