63
 energy: -13.021860059699 gnorm: 0.000726516309 xtb: 6.5.0 (97a52f5)
C            0.78733048332808       -0.09363221403490       -0.36011732661503
C            2.32281745158061       -0.22174137608958       -0.41869766925840
C            2.78406029419680       -0.41589681522211       -1.87795714923772
C            2.93915655717997        1.07725788245060        0.11885301602462
C            2.68055144557852        2.27763908735745       -0.52632841580416
C            3.21612555316866        3.46881758375197       -0.08001365596998
C            4.02890097134170        3.48008367419252        1.03211962903598
C            4.29594823924391        2.30310170987871        1.68930869283370
C            3.75988308349656        1.09276587175692        1.25294545065593
N            4.05827489780990       -0.10202471275222        1.96276606780425
C            4.85521077795483       -0.03122164999227        3.16764740313224
C            4.27944261250257        0.37466966440580        4.37046374349865
C            5.05194106329336        0.45940212818441        5.51102452184126
C            6.38311056087094        0.13472926612912        5.45716270319036
C            7.00027939196448       -0.28365947622218        4.28457575173606
C            6.20643915609751       -0.35346299033617        3.13874154778100
O            8.36205793963449       -0.63331896364323        4.16253472757935
C            9.16226844075418       -0.95074258614642        5.28008293660850
C           10.35897108408165       -1.64084431705643        5.05089456292226
C           11.19167172278687       -1.98568629388336        6.09223273368612
C           10.86013720488145       -1.64964953815056        7.39084231557432
C            9.68613029088703       -0.95931702996401        7.63856877155234
C            8.86266388134660       -0.62373533590429        6.59623711115072
P            7.38686608499630        0.31405951719784        6.90982850503670
O            6.64977003538295       -0.19325082390201        8.17612570739250
C            7.82922167565182        2.04512146034403        7.06556213945357
C            7.32872199014028        2.79348770188485        8.10257034947642
C            7.66558342154890        4.13166060990109        8.20211279168449
C            8.49845158801098        4.70325673533752        7.25917878621720
C            8.99282591683922        3.94319525387119        6.21664058615438
C            8.65324753601507        2.60595652171244        6.11897415090726
C            3.56385663083125       -1.35889113507229        1.51976251711010
C            3.89338501004962       -2.51493627331518        2.22502259527376
C            3.42870326051300       -3.74718480786691        1.83247599475406
C            2.61857021508881       -3.84671036901010        0.72280675153247
C            2.28022145679152       -2.71049282719223        0.01620611903952
C            2.73884939218119       -1.45673308028921        0.39270408018264
H            0.43824550710341        0.75847215295968       -0.94080621052807
H            0.45842102088876        0.04327303739333        0.66926388255448
H            0.29987302161640       -0.98408586810790       -0.75341828717999
H            2.49059166461130        0.42565497659512       -2.50286845152519
H            2.35289029427455       -1.31480630541224       -2.31487096225442
H            3.86865097650797       -0.50639362082783       -1.92295261601930
H            2.04605024769677        2.28275916979357       -1.39526858149675
H            2.99959964545119        4.38749507035751       -0.60026008671772
H            4.45180739467526        4.40637616992084        1.38542647313541
H            4.93102805934970        2.30788873101488        2.55702171957490
H            3.23377023917806        0.62595544805562        4.39143833761180
H            4.62372000140542        0.78382289137117        6.44667814990550
H            6.65462108121459       -0.66490722217936        2.21458234919001
H           10.61229145245463       -1.89914238775310        4.03802893674118
H           12.10679457459135       -2.51891641146652        5.89341443899046
H           11.51256508897872       -1.91860350237655        8.20497121939267
H            9.41062970399529       -0.67717628184985        8.64294704516312
H            6.67957454692737        2.32636105138821        8.82624117080715
H            7.27760722247904        4.72598001818918        9.01288960706217
H            8.76245964456919        5.74525240660896        7.33665502047704
H            9.64006493821104        4.39024065956363        5.48010478207395
H            9.02226062955849        1.99652210866849        5.30878547707191
H            4.52304782561039       -2.43323684128367        3.09273877886287
H            3.69555130898302       -4.63019676738402        2.38989249362780
H            2.24863701401164       -4.80893108735041        0.40857612797609
H            1.64168957766710       -2.80120964816086       -0.84504935842401
