53
 energy: -11.011870283330 gnorm: 0.000712248299 xtb: 6.5.0 (97a52f5)
C            0.97448279412351       -0.05359086382645       -0.22504610103222
C            2.51587343180472       -0.09921155049381       -0.20846399614785
C            3.06207374650915       -0.15464916153466       -1.65001208643592
C            3.03338774316145        1.18214787228118        0.45936963552065
C            2.73188734239640        2.41498756346910       -0.09990522393874
C            3.18608032406371        3.59266115830589        0.45727318534721
C            3.96040350798156        3.55672283762554        1.59544394651761
C            4.26878378409126        2.34687222929921        2.16876280579104
C            3.81230284242391        1.14893844655063        1.62219568911289
N            4.15037985939386       -0.08140649881230        2.24816943512470
C            4.93554359997106       -0.07194597970746        3.46194135979605
C            4.36685582889256        0.31036087264498        4.67358524667278
C            5.12830299069089        0.31205630855420        5.82192587317514
C            6.44768913317003       -0.06684941132800        5.78738463775506
C            7.04923800548646       -0.46290265266130        4.59647106095901
C            6.27045901978965       -0.45037890254492        3.44147934114338
O            8.38065420999065       -0.87988749618342        4.45430598651331
C            9.21007368861924       -1.08277517976545        5.56623832924265
C           10.46190927436562       -1.65456582943119        5.32161181326121
C           11.34616548980127       -1.90119545737014        6.34599591093763
C           11.00474943339267       -1.58129213919607        7.64379462581807
C            9.77333596560037       -1.01085034252344        7.90296105133723
C            8.89072153278481       -0.76448865086815        6.88204370277697
S            7.33539530429907       -0.01656389876019        7.33344195764443
O            7.58540420912115        1.43062224183235        7.69791915623469
O            6.63398556965295       -0.92758972846539        8.31753657085589
C            3.72595208405184       -1.32118288013056        1.69759334542589
C            4.07104265145398       -2.51154425198408        2.33496391638270
C            3.68190073781899       -3.72968947841037        1.83262342069436
C            2.93227254580805       -3.78180381402623        0.67864839373916
C            2.57520622849026       -2.61186822344031        0.04033945280569
C            2.95636440961385       -1.37108151356221        0.52916115839234
H            0.60856823102939        0.81953219981352       -0.76217037072613
H            0.58655443267544       -0.01000373045308        0.79176346266770
H            0.55612271034294       -0.93548431223639       -0.70668953705743
H            2.75564296922997        0.71702694128802       -2.22530114802670
H            2.70500050530244       -1.03724082406732       -2.17742223103860
H            4.15072805841185       -0.18581004626607       -1.64105377912763
H            2.12934923264326        2.45682354603532       -0.99025565625767
H            2.93748197484700        4.53719481976605        0.00203294677200
H            4.32146435660586        4.47264697838915        2.03387047199833
H            4.87628374410739        2.31647602075980        3.05521415270118
H            3.33124991800260        0.60057619587807        4.69682155497189
H            4.69387580341194        0.61023861644634        6.76254416631214
H            6.71901236691992       -0.74774016271634        2.51275447815139
H           10.71717728834508       -1.90208904702402        4.30638347883402
H           12.30502152948210       -2.34546527949375        6.13506844465014
H           11.69372636986426       -1.77301802897633        8.44977782705796
H            9.49353700724855       -0.75257027768982        8.91175341370623
H            4.65144395676291       -2.46900388727411        3.23885706903875
H            3.96111159476162       -4.63943064869940        2.33850466886839
H            2.62346563187295       -4.73291114154856        0.27698776777083
H            1.98328502931631       -2.66584355746810       -0.85644478269011
