34
 energy: -7.774865381275 gnorm: 0.000496223256 xtb: 6.5.0 (97a52f5)
C            0.84606895098950        0.07045304517212       -0.07805937782877
C           -0.37388361480284        0.04759756124751       -0.04712678033552
C           -1.78393358391374        0.01002626278662       -0.02807126166621
C           -2.48636374182999       -1.17561569941446       -0.02184791679354
N           -3.79739429609388       -1.24013079953607       -0.01912210818924
C           -4.43072093904729       -0.06543812744155       -0.02257677030382
C           -5.84394183224121       -0.10733170401147       -0.03425017271686
C           -7.06508439757463       -0.15560240796396       -0.05940805995757
C           -8.47249016218123       -0.22470470268687       -0.10295642119249
C           -9.12200762976077       -1.45437864380213       -0.12223675174294
C          -10.49823086527953       -1.52339802261814       -0.16629491158666
C          -11.24827413885921       -0.36567800352138       -0.19201944510684
C          -10.61905551438338        0.86208179877866       -0.17426340762436
C           -9.24286391380992        0.93291164374119       -0.13031194164716
N           -3.86537687177468        1.14340903313322       -0.02119853026489
C           -2.55266217574946        1.15388541381933       -0.02385375457833
C            2.25681614319888        0.08636046828695       -0.12836438063300
C            2.95537648511784        1.28850453677829       -0.15515958900770
C            4.33330461350819        1.30106739658089       -0.20536042549694
C            5.03551276661623        0.11371670841881       -0.22980753828366
C            4.35697881800162       -1.08726125253401       -0.20484918566132
C            2.97914235597438       -1.10169937251760       -0.15475038646728
H           -1.94195877851855       -2.10717049699676       -0.02336308632867
H           -8.53341216815648       -2.35574836034018       -0.10267741350654
H          -10.98840972272269       -2.48308268849562       -0.18064432232310
H          -12.32407844993022       -0.42031781867671       -0.22614125266843
H          -11.20387812594350        1.76708944499634       -0.19509355398238
H           -8.74856894436065        1.88930681509728       -0.11776399934111
H           -2.06280238127897        2.11519332006525       -0.02696833753511
H            2.40425829251470        2.21325304762080       -0.13664265235939
H            4.86220017701855        2.23985105222048       -0.22549159687950
H            6.11250476191893        0.12430154313314       -0.26855614176361
H            4.90421083240962       -2.01549268860573       -0.22475482560311
H            2.44630805094453       -2.03710830271246       -0.13658370062215
