88
 energy: -18.628011716760 gnorm: 0.000510794381 xtb: 6.5.0 (97a52f5)
C            0.49279535574016        0.09791757840270        1.25621303374108
C            1.74496707197981       -0.78997359829593        1.40909094243863
C            1.35899231660957       -2.27739068269224        1.27670255546144
C            2.73065874986364       -0.44268343845429        0.28506795657915
C            2.33623322964059       -0.58836130052926       -1.03702434168312
C            3.19428384982323       -0.31433838670051       -2.08285700595153
C            4.47904947744675        0.10788782699149       -1.82016496377180
C            4.89091274853551        0.25979869402505       -0.51768447165304
C            4.03276203841402        0.00118445683747        0.55112798238849
N            4.49072598936742        0.18149340924929        1.88564746277543
C            5.85274856484049        0.60587522612312        2.12375772993630
C            6.26048045622819        1.90880735178486        1.77727299398758
C            7.54635128253770        2.34293862224730        1.98267592825278
C            8.46320689176083        1.47177706254700        2.56264221429448
C            8.06208633784108        0.15862137501894        2.93734354282139
C            6.75965752454554       -0.26853962569916        2.70425052714380
C            9.20210749209970       -0.50854835197457        3.55384232682096
C            9.56231318261628       -1.69899251780102        4.17750862765057
C           10.87261530137620       -1.85657640904668        4.67393188336654
N           11.21550393340887       -3.07869695436356        5.36764457070353
C           11.43944101954957       -4.26916254197293        4.62636794249101
C           11.33384145088051       -4.24751277060341        3.23602945217678
C           11.54283263788253       -5.38043030855561        2.48639414085922
C           11.86697300231702       -6.56283488486537        3.11546371846129
C           11.98141160787554       -6.59930686165742        4.49071980502780
C           11.77316962876360       -5.46923404120571        5.26770120428073
C           11.92422128896783       -5.56006061431696        6.79302880709540
C           10.93342895522216       -6.61765255989301        7.32193010899941
C           13.37163274393966       -5.98198522088801        7.11659631987502
C           11.63680956069423       -4.22751686247581        7.49891139965431
C           11.70831164184061       -4.15560071898947        8.88244489683577
C           11.44895848976505       -2.98126445033837        9.56033920451764
C           11.10830082879170       -1.84596147236791        8.85776444959087
C           11.03414906010460       -1.89350428354701        7.48625680912563
C           11.29875445344642       -3.07022192357852        6.78577473553308
C           11.84531848072662       -0.84344048740825        4.55484121844153
C           11.51327624869647        0.36248110261833        3.94209590355048
C           12.06679702896361        1.66985327231113        3.61293402787527
C           13.33107922074181        2.22222303917773        3.81717603226370
C           13.56333653959154        3.51248547232271        3.40135896942736
C           12.55973079534549        4.26570922520699        2.78683582048667
C           11.30454367650431        3.74395543904841        2.57694555463297
C           11.04490067820474        2.44043002395888        2.98804118288176
N            9.84339270925615        1.66699467295579        2.90153433742219
C           10.20463028816490        0.45451641400915        3.47612894408061
C            3.63860241765119       -0.08363516549494        2.99305121696769
C            4.10174192580678        0.13299177063934        4.29093719980165
C            3.31482072572280       -0.13300845866549        5.38595002977975
C            2.03837119168639       -0.61861634493015        5.20474789804381
C            1.55916032209590       -0.82539346319669        3.92691107225888
C            2.33493211588630       -0.56190784948660        2.80735384538724
H            0.01626896121420       -0.04887178550447        0.28830613569596
H            0.76100711208023        1.15032020660729        1.34280774838763
H           -0.24778446498830       -0.12370972435163        2.02303133733751
H            0.91481724242100       -2.48738063975391        0.30494604347105
H            0.63805604614955       -2.57066008465974        2.03815237255352
H            2.23986064072934       -2.90907372475575        1.38680389524441
H            1.33834576190464       -0.92747194685050       -1.25450118676357
H            2.86205583128450       -0.43460466393206       -3.10120580384566
H            5.15704736607255        0.31795732820554       -2.63149046250100
H            5.89611653931536        0.58143148065943       -0.31330047068452
H            5.53243554119714        2.56934605918325        1.33959128122819
H            7.85401910266658        3.33718764620275        1.71182389210460
H            6.45588073727294       -1.26201394940362        2.97628575200896
H            8.84411469508012       -2.48811964996969        4.29741584735979
H           11.08470360553015       -3.32247646395158        2.74742201696515
H           11.45366729258624       -5.34449203018482        1.41272090120451
H           12.03269444165021       -7.45599136094416        2.53521229242585
H           12.24140446677952       -7.52718115947150        4.96981992824511
H           11.11112329431797       -7.59162985490381        6.86888403262047
H            9.90878230396991       -6.32399318361576        7.09640120153194
H           11.01830896236842       -6.73821097601866        8.40071675872177
H           13.61769670801655       -6.93922402673325        6.65956997333562
H           13.52602311164270       -6.07981198011847        8.19005700860823
H           14.07588829960561       -5.23977433543047        6.74211981608369
H           11.97266469678835       -5.03555421080068        9.44267042483531
H           11.51157537741635       -2.95246648544022       10.63602980772474
H           10.90229167081121       -0.92600752093719        9.38053013774195
H           10.76577501695839       -1.00936689019944        6.93615288207342
H           12.83078209521757       -0.99653877797712        4.95266001947424
H           14.09962182517680        1.63847234473401        4.29263343552476
H           14.53601634475835        3.95141576565536        3.55240717798193
H           12.77334650286363        5.27444835643958        2.47294288926861
H           10.52705386145830        4.31885110478150        2.10604434047709
H            5.09582447717713        0.51753006761273        4.43231854138394
H            3.69461531780604        0.03533271491313        6.38066019576966
H            1.41550086807738       -0.83351646640552        6.05779622931436
H            0.55839581691998       -1.19942066818857        3.79792786391607
