88
 energy: -10.924478389813 gnorm: 0.114302293671 xtb: 6.5.0 (97a52f5)
C            1.26519969734564        0.25939329122572        0.50158089573640
C            2.64453786459826        0.52773440636214        0.09091015244819
C            2.94236596159173        0.34340027355899       -1.27786762571883
C            3.22045006741661        1.75065942342909        0.70321092737826
C            3.20546060242045        2.93721667044206        0.03594590581588
C            3.75924892707285        4.02705254848668        0.57642515498946
C            4.32462480827196        3.98855156291657        1.80735549234035
C            4.33941656292976        2.86065157359248        2.52479723989047
C            3.78342951081515        1.68406904696926        2.00743526784699
N            3.76181106701061        0.50029099047887        2.73197995632566
C            4.74777280250514        0.11357162855668        3.62176957697102
C            4.43764411032678       -0.56312130128194        4.78637956388220
C            5.35832897834419       -0.91956899764972        5.64872490208832
C            6.64113544889066       -0.64018181853608        5.43013439903082
C            7.01851715956603        0.02679474370700        4.28534520651164
C            6.05625081276152        0.39752870250768        3.38176016220675
C            8.40070295202059        0.22074388925025        4.08954420583773
C            9.40337891668568        0.12796052585192        4.94584825694641
C           10.74716274941488        0.10006046403756        4.66878606493158
N           11.66524741864506        0.45479032490657        5.72150502859935
C           12.55009409009262        1.55599124552357        5.55865598636031
C           12.58811627649275        2.27175780628865        4.41607435925946
C           13.40338754341137        3.27837182453685        4.24234775627748
C           14.21945931466995        3.62735200795718        5.19040349756708
C           14.22472655035618        2.98250758683459        6.32923616481451
C           13.41486821432735        1.94748478371967        6.57560131454069
C           13.47753515394464        1.25390150779398        7.96856664738805
C           14.83374412822561        0.72684971756479        8.20128158955372
C           13.12083291352532        2.20471715173473        9.02524188671908
C           12.47075172710882        0.07354660337604        8.02953717406005
C           12.40732545251954       -0.68179569480641        9.18038068458577
C           11.59045516120876       -1.73599447140170        9.27964841724463
C           10.80866561582214       -2.08183459414559        8.22759591200463
C           10.82646057760451       -1.38281754077787        7.08654319622140
C           11.64445623622899       -0.28449773752175        6.93011138810837
C           11.26009485646145       -0.14583465049600        3.41929196343128
C           10.72669086920257       -0.65789107179089        2.30558338610166
C            9.61058988685659       -1.43228590575951        2.16375341132686
C            8.67880614108854       -1.36984740457251        1.19954529174821
N            8.53521866752509       -0.52111931727069        0.23482796683496
C            7.54861001321362       -0.48907055789765       -0.62868877016016
C            7.29184997362568        0.34777811135353       -1.62950075607798
N            7.93580121253028        1.37586826365252       -2.02303189451748
C            5.12074614670582       -5.46222630443835        1.18382277396599
C            5.12850964309366       -4.61590550406175        0.26351689564076
N            4.23827368846251       -5.59831228672870       -4.48007183610884
N            6.77443886533134       -4.15096728480794        3.48489935062704
C            7.87416467382174       -3.76113276697095        3.90022274437039
C            2.14874183951011       -2.66486205456538        2.60401173855763
C            1.85108548243089       -3.58419671017441        3.45176972625914
C            2.64116362889014       -4.47313294740047        3.93686940332973
C            2.21640838595624       -5.30344444181130        0.08235243997493
C            0.92004999752510       -0.97564887245567        0.14590058942630
C            1.15578959001272        0.27686210765010        1.82542924514082
H           -1.13324019805548        1.49845652882388       -1.36459184873546
H           -2.05147372412868        0.76519556284822        1.46285712618319
H           -1.08766006652552       -1.22282919396832       -1.72771063044394
H            2.68307805220096        1.75261535386352       -3.24656729897839
H            2.10714632636562       -1.40609277089643       -2.79388431122113
H            5.42926824704629       -1.05913830068743       -2.22019682444959
H            1.44493518445199        3.09008606123987       -1.30997592415525
H            2.51388919290230        5.71253075042260       -0.54786389916644
H            4.37138337801741        6.30930532146347        2.47837498021284
H            4.91896273455110        4.44087019617912        4.43826025350005
H            2.18839989305940       -0.82983040489949        5.67135898563751
H            5.56729932761494       -2.63469955883608        7.39068824628670
H            6.52792363515363        1.54767633954035        1.25572509025994
H            8.62550577250461        1.00124922898720        7.42677941361981
H           10.78234855308277        2.45365331715424        2.82949133869855
H           13.29009480412766        3.66045392402126        1.74790875909268
H           15.72421169831826        5.04703076004815        4.03328027690063
H           16.40788835771517        4.17195130353402        6.93490782528360
H           17.03510373723913        1.62220132143727        7.84268279139521
H           16.12419459744573       -1.44700437721795        6.69454476692957
H           16.40858580238040       -0.08078999920257       10.10973456244818
H           14.08133382997772        4.40909769912085        8.64951412334332
H           14.08828815724788        2.67912869134072       11.17105304885005
H           11.34419146341402        3.76264674280908        8.16038870950724
H           13.70195307348381       -0.05595493729389       11.14279038230636
H           11.88658090551922       -2.42111366865424       11.66515400219574
H            9.59835746673505       -3.85485265375452        9.34609796053495
H            9.36833660651661       -2.57844073980865        5.71088085131503
H           13.21218757200777       -1.26028451901936        4.54307245074358
H           12.04090283505588       -2.52947964972920        1.39438125462293
H            5.94648597902869       -3.56958203439034        3.46597330155342
H            3.88427431401101       -6.22306370218315        2.19717092316083
H            1.91842242187363       -7.96437281985339       -1.28977559778824
H            0.44823114233413       -3.73423833343445       -2.58370546741520
