63
 energy: -13.583300690880 gnorm: 0.000183558317 xtb: 6.5.0 (97a52f5)
C           -0.83644243360027       -1.24814573140117        1.81437999193392
C            0.64821792014681       -0.85672725365427        1.95071451033806
C            1.39148974099812       -1.25958386297463        0.66562170356868
C            0.80258727924390        0.66179408688705        2.15160633778402
C           -0.16280833545765        1.58568123701563        1.78798450076435
C            0.03925761178033        2.93914440463269        1.97979216057907
C            1.21549468677724        3.39324854172059        2.54060670359865
C            2.19162849857937        2.49531177003018        2.90169356104197
C            2.00404898415544        1.13004263473237        2.70207407262072
N            3.00398723002717        0.17330242915605        3.08335982684191
C            4.30245469783414        0.19815320905354        2.47959413049331
C            4.63060028953898        1.16410706038789        1.52261601963558
C            5.83373483948352        1.12899150491792        0.87397233818805
C            6.77896012381547        0.13676102769063        1.14731322409504
C            6.48038554240409       -0.83862765652261        2.12003448980359
C            5.23759887944231       -0.78996964415166        2.74853051704107
C            7.46642911637444       -1.86805183125123        2.43385939384617
C            7.24978355639359       -2.83320024384557        3.42424398603579
C            8.19553890348569       -3.78758935015348        3.70849456170902
C            9.39150943943715       -3.81035369761850        3.01172189670322
C            9.63049888455791       -2.87477627068861        2.03792963747852
C            8.68743968922553       -1.89200428608267        1.73067388531007
C            8.98237098312453       -0.91220026324549        0.69345592296024
N           10.13137375646331       -1.01369811883718        0.05034153781057
C           10.33847764641047       -0.08717498085808       -0.90501958622503
C           11.53130213093361       -0.12514339635745       -1.65904224336949
C           11.77886843089872        0.78847058129109       -2.64023592750124
C           10.84677902412961        1.79001231302392       -2.91770997372119
C            9.68452394468434        1.85944116810112       -2.20876886741656
C            9.39135902663561        0.92991207156729       -1.18712946083964
N            8.22682554503304        1.02890592017561       -0.51929305964881
C            8.03016767445679        0.10833862644035        0.40870427491905
C            2.47657628518184       -1.02335192987591        3.68091742574638
C            3.07144777469322       -1.61294132488165        4.79415651807523
C            2.55206673154343       -2.76484480569836        5.33560662801162
C            1.42394064868222       -3.33538706066908        4.78282120235001
C            0.80424385653667       -2.74092005955593        3.70059248036237
C            1.30375001037593       -1.57541189052707        3.14399043054218
H           -1.29686012973575       -0.75491405928635        0.95990948927261
H           -1.39325993996297       -0.97638806394065        2.71028657119792
H           -0.94876350206515       -2.31854804020739        1.65035124676961
H            0.97494225632201       -0.74758930348214       -0.20100091685874
H            1.32096868310873       -2.33324205674257        0.49582360102694
H            2.44670403810286       -0.99872793343901        0.73529520967390
H           -1.08530561709352        1.25259755079983        1.34779955208775
H           -0.72563787509210        3.64255617292509        1.69378936267363
H            1.36762015608302        4.44868806461900        2.69722324346963
H            3.10661643489549        2.83419910277409        3.35558279511656
H            3.91007639497654        1.92072944066193        1.27129933434715
H            6.06717039935038        1.86651483063423        0.12657750087961
H            4.97452577728139       -1.56246313241446        3.44017620072326
H            6.33251236536077       -2.83030832540706        3.98390044512492
H            8.00873653461086       -4.51991214457385        4.47703511851716
H           10.13283136725895       -4.55978336599705        3.23620575377849
H           10.55839836995125       -2.88416202823572        1.49381476390455
H           12.24578733464388       -0.89960805230958       -1.44204694813980
H           12.69508742289971        0.73912001463872       -3.20550799899327
H           11.04859571201953        2.50795219736189       -3.69568300741579
H            8.96225069773170        2.62843398614296       -2.41942264248955
H            3.92558686912535       -1.13780360759578        5.24452391528280
H            3.02248353587795       -3.21906554004648        6.19237577306019
H            1.01920832384169       -4.24160257173420        5.20307264045028
H           -0.07878422380769       -3.19592806315622        3.28948424506104
