62
 energy: -13.376886445873 gnorm: 0.000265144590 xtb: 6.5.0 (97a52f5)
C            0.83787670143247        1.18988585158908       -1.21080156070677
C            2.35857638419846        0.99783089401045       -1.03970345215555
C            3.07403571977732        1.20308950752279       -2.39071551290662
C            2.87398310793045        2.05175061852352       -0.04962381479983
C            2.72291823662436        3.39866804517624       -0.34485371510517
C            3.18128271085533        4.38204058657675        0.50836742974228
C            3.80758162517137        4.03074049972979        1.68414649365247
C            3.96623605409705        2.70206524289173        1.99809504137387
C            3.50376859023565        1.69690809094774        1.14998916611681
N            3.69075570708646        0.33340660499370        1.50958078125711
C            4.34406347097207       -0.00093000729313        2.75577181411219
C            3.66934776420958        0.12749537841320        3.97333694148132
C            4.27594954247168       -0.24808467753457        5.14072821816857
C            5.57419534986922       -0.76246817141805        5.13814787479076
C            6.28359761004719       -0.88676736361041        3.92624368932158
C            5.64059607215034       -0.49774147928590        2.75330275535583
C            7.65085437082817       -1.41772639525374        3.93458958499809
C            8.40426667775511       -1.51528757036208        2.76012320135095
C            9.69120779688091       -1.99581011159408        2.77432543021640
C           10.26849755711014       -2.38954437155104        3.96678416663471
C            9.55195274854733       -2.30535731381323        5.13521335740161
C            8.24303940027892       -1.83194991848163        5.14776021518342
N            7.49346567294378       -1.74615160312192        6.35822134818629
C            7.73134446646959       -2.10473171499580        7.69104396983301
C            8.78478009046634       -2.72752979771899        8.37266075137528
C            8.67189685157534       -2.94387265966622        9.72208789341586
C            7.52428961688403       -2.55773702543732       10.42587571423597
C            6.47556420705870       -1.95637124114275        9.78464669526651
C            6.56635072678774       -1.72540957754733        8.40223096777779
N            5.64688359355464       -1.17903566922235        7.56215558482616
C            6.19882301163861       -1.20140851074922        6.36037258077907
C            3.25045195404665       -0.71372937977890        0.65268625606525
C            3.43844873216284       -2.04123116564135        1.03575310995789
C            3.02450433507164       -3.08128628466657        0.23871320530864
C            2.40761332518539       -2.81272432269078       -0.96337189482063
C            2.20815433246329       -1.50409713388799       -1.35449123912337
C            2.61733503471083       -0.43880312277402       -0.56566148962197
H            0.60150553326930        2.18984401892597       -1.57073225171931
H            0.32812362321691        1.04615832000816       -0.25884181115346
H            0.42517494005515        0.47778556399445       -1.92352320367977
H            2.90122987341867        2.20327465291880       -2.78447150782327
H            2.72518048997568        0.49168215212827       -3.13739603848040
H            4.14884704135283        1.06855361189643       -2.27491218702003
H            2.23828589248432        3.68572588617280       -1.26167561250045
H            3.05176779276839        5.42152805335751        0.25454272544042
H            4.17114415403579        4.79355210535926        2.35324793334191
H            4.45854077021723        2.42497428866849        2.91310704209380
H            2.66400089339103        0.51079904503007        3.97267010235651
H            3.75520093449990       -0.16270264263498        6.07814101565674
H            6.13363708923551       -0.58857157357575        1.80525444401721
H            7.97844182721174       -1.20494818374637        1.82363696450827
H           10.25378453007278       -2.06120131692636        1.85718960149253
H           11.28082721843955       -2.75966525249123        3.97868613407878
H           10.01703371841789       -2.59581514303563        6.05589037985595
H            9.66495177283915       -3.04947508862952        7.85096277022139
H            9.47795745869854       -3.42391505519667       10.25252503065741
H            7.46583896267426       -2.74268737629280       11.48594600615778
H            5.58605305697229       -1.66379662416944       10.31315873175268
H            3.91562127777642       -2.24913237275185        1.97661401120613
H            3.18116163601947       -4.10056348614491        0.55225441652538
H            2.07975847960890       -3.62214857742966       -1.59505021058642
H            1.72096188381003       -1.30759973658105       -2.29354604538915
