92
 energy: -19.512799474497 gnorm: 0.000317958584 xtb: 6.5.0 (97a52f5)
C            1.37045353989523        0.94314079839804        2.39639270882707
C            2.35801154320994        0.55884415226295        1.27624402406775
C            1.65283849600541        0.61719703581313       -0.09457575610252
C            3.51085479763111        1.57265542687266        1.27583313361978
C            3.24477191147799        2.91344381635049        1.04001550076473
C            4.25019516889446        3.85923707943102        1.02853739431846
C            5.55388843940662        3.47593053945499        1.25617295212973
C            5.84032239681941        2.15331849098505        1.49581456925289
C            4.83592376145493        1.18675597861875        1.51293854052253
N            5.17550896068081       -0.17051208166818        1.76754624574940
C            6.54099504988889       -0.51465251202290        2.10122592155805
C            7.01420259461936       -0.34048860533564        3.41223212426818
C            8.29668903584592       -0.67249604848179        3.73975649652085
C            9.17612116854378       -1.19350595314415        2.77951521069132
C            8.71602161194286       -1.37021044896615        1.45684401067820
C            9.60878336761972       -1.89680859015057        0.47735744964875
C           10.87798910932806       -2.22644050190657        0.80056416522245
C           11.38899068276279       -2.06782107870295        2.12524542073007
N           12.65411562834809       -2.41340255316073        2.37030236308525
C           13.05246658597077       -2.23499170567612        3.63102525287161
C           14.39415620304874       -2.57772147677498        3.98254162323623
C           14.86899575017681       -2.42104477056301        5.23714628133840
C           14.03980413863536       -1.90342979903019        6.27557598310640
C           14.51234826204322       -1.73566497794063        7.58148389251528
C           13.69730310368526       -1.23785061190953        8.58239013768280
N           14.19423531109416       -1.07452202140375        9.93053683025296
C           14.42172340024841        0.23485867200733       10.43882996861925
C           14.24580155904133        1.33721148167570        9.60331560349712
C           14.45034342127781        2.61820775275125       10.05708689645326
C           14.83970976285961        2.82361549905365       11.36244727164875
C           15.02646259678340        1.74269909982660       12.20018117615097
C           14.82846057549872        0.44116946965751       11.76297331218732
C           15.06345317375272       -0.72610254316434       12.73133456371853
C           16.52682062930159       -0.67328453098162       13.21614353864032
C           14.10292627870534       -0.56958463323886       13.92784753613284
C           14.81502552875834       -2.09466852692269       12.08232817233420
C           14.99030151373343       -3.24833951798978       12.83243736230512
C           14.76494928639238       -4.50051990752656       12.29750640178339
C           14.35239535148426       -4.62136123568579       10.98874382372824
C           14.17184179518926       -3.49163387813276       10.22731716727719
C           14.40180849937474       -2.21947104714408       10.74982225463718
C           12.37197743111234       -0.89280226056963        8.26912494848347
C           11.89240307068605       -1.04581812578406        7.00073619696370
C           12.70576198766038       -1.55233369861328        5.97678652888128
C           12.19364363496176       -1.71507044534167        4.63591915054503
N           10.93192297033676       -1.36918246928115        4.38869575747196
C           10.53220140016855       -1.54622870470839        3.13106246570290
C            7.39741962718562       -1.02508185772274        1.14234820664353
C            4.18078029159366       -1.18677022919580        1.74704223211373
C            4.54872675062196       -2.51207068895927        1.97420174705907
C            3.61632449466643       -3.52162626051026        1.97617164946630
C            2.29009612424029       -3.22308423487191        1.75197968030175
C            1.90951673062742       -1.91525377370592        1.52776214463372
C            2.83340279627671       -0.88060217318946        1.51915986882900
H            0.98538008148937        1.95201298551285        2.25699626375079
H            1.86340508081095        0.90262835706229        3.36706255889080
H            0.51840623415366        0.26582592985327        2.42402924480099
H            1.27156479191332        1.61521337552241       -0.30397269808643
H            0.81022766571412       -0.07081635739861       -0.13833937169717
H            2.34721989042731        0.34907121888721       -0.88998331686298
H            2.23042584136731        3.22603391804259        0.86318316318630
H            4.01627862585469        4.89458211739551        0.84129424119607
H            6.34407799366168        4.20894712208484        1.24660508360342
H            6.85662594143196        1.84939153247665        1.67289221442506
H            6.34314204703553        0.05691478732792        4.15352041722085
H            8.65399284555626       -0.53986640903413        4.74562009026193
H            9.25239464652933       -2.02720806206089       -0.52980312180141
H           11.54210596283658       -2.62204396588175        0.05233727231701
H           15.02935617878344       -2.97003261912141        3.20797259214508
H           15.88518569635218       -2.68731434361287        5.47143045880916
H           15.52765716110036       -1.99623872425725        7.81750766105995
H           13.94625877499587        1.17455305842418        8.58348772945409
H           14.30612647241887        3.45734402529205        9.39612013234365
H           15.00010907655706        3.82489029570899       11.72775592850358
H           15.33331592996550        1.91588907430480       13.21690251442227
H           16.75016984370226        0.27384252070144       13.70442339365998
H           17.20930552807972       -0.78683323223810       12.37461445931883
H           16.73823094736657       -1.46801386254242       13.92963054555923
H           14.25843605487589        0.37815884394814       14.44071776890314
H           14.24393646447453       -1.36520411180311       14.65759261090595
H           13.06773238222229       -0.60293570817261       13.59009618760296
H           15.30590523425470       -3.16651720124127       13.85788802513157
H           14.90877876618186       -5.38102328031908       12.90230749539788
H           14.17186063085808       -5.59579887481694       10.56484423567871
H           13.84387186639883       -3.58426470447929        9.20764835626393
H           11.74197230481416       -0.50669654099593        9.05130454531610
H           10.87669517201751       -0.78008097708295        6.76664595157175
H            7.03698900772411       -1.15710721121310        0.13888854576265
H            5.58429276685080       -2.74061148995782        2.15231341325458
H            3.92045725127288       -4.54039090334520        2.15350230303296
H            1.55186940067201       -4.00841386741042        1.75369327633943
H            0.86987213771166       -1.69452752856368        1.35962172566532
