121
 energy: -25.446336220751 gnorm: 0.000566334561 xtb: 6.5.0 (97a52f5)
C            0.79066287937430        1.99499086573133       -1.21119134988063
C            2.25562606554849        2.47173982985965       -1.13622787032474
C            2.70925131130356        3.00913821223082       -2.50921408028327
C            2.34560505482330        3.61227963120160       -0.11324636949233
C            1.60068026777594        4.76567063011623       -0.31086387682453
C            1.63335634772777        5.81161646237679        0.58915652725892
C            2.41713394397967        5.71760069917693        1.71811585799366
C            3.16411582164906        4.58407512643660        1.93364847955757
C            3.15201743935498        3.52322505161185        1.02869411362066
N            3.94395559319509        2.36855369194613        1.28565211925645
C            4.77865515012034        2.31583977982738        2.46452901394254
C            5.91307732068329        3.14266729623257        2.58117809206687
C            6.72790760122537        3.05520954626382        3.66675479190094
C            6.47532501369403        2.13137201869381        4.70671479219224
N            7.32712139797243        2.05531561087647        5.74334156666302
C            7.03199364764621        1.13686760598659        6.65036809515417
C            7.93240657758470        0.97634272233301        7.77908202139349
C            9.06391478242191        1.79207684092563        7.88622745036577
C            9.94419900761915        1.65594173145991        8.92378255569404
C            9.72553887059202        0.69323098725957        9.91404252927902
N           10.66462176342072        0.51558483123284       10.99824618278883
C           10.79427550762266        1.52478363289618       11.99348184023934
C            9.98765850685032        2.66066086057900       11.93346932684892
C           10.08629494894897        3.65889274868662       12.87310083172885
C           10.99651220123059        3.53896756330611       13.90019995858113
C           11.79457585398796        2.41580636413986       13.98085337230479
C           11.70927359311284        1.39434622764778       13.04601583192054
C           12.60101485750929        0.15458440898241       13.19880035044280
C           14.07591081096208        0.60243808385618       13.14505916389405
C           12.29593523929172       -0.50275511622916       14.56067966574991
C           12.36731905018539       -0.88433094346051       12.09374406272092
C           13.09810622708776       -2.06360797025976       12.10027196552801
C           12.93825804349256       -3.01984286871113       11.11793498763871
C           12.03813261147018       -2.80735855949960       10.09716066675420
C           11.30373216306403       -1.64606435347005       10.07101353172893
C           11.44410216793575       -0.67423061832198       11.06158226518919
C            8.60101778598678       -0.11265258549574        9.82307167641014
C            7.69725133516302       -0.00193349247238        8.76833603061486
C            6.53322981597808       -0.87209837287195        8.65566696804140
C            6.27615061019023       -1.88350622599329        9.57902686483386
C            5.17362345483864       -2.71651124009142        9.46651702467024
N            4.96514230442116       -3.78135742559221       10.42199321729876
C            5.20211212415537       -5.12923402299024       10.03065759737279
C            5.61383857059460       -5.40607570581008        8.72741402800461
C            5.85676767715027       -6.69340979486307        8.31178600606409
C            5.69407315534668       -7.73602982287079        9.19737079062655
C            5.29520344098182       -7.47857687285645       10.49346359965488
C            5.04745343712853       -6.18702844819297       10.93542530012060
C            4.62781098638844       -5.95388335973825       12.39333523517346
C            3.30763276116201       -6.70912467689340       12.64907359160684
C            5.73776510342797       -6.49971917402027       13.31533931370575
C            4.41188041548010       -4.46932742074441       12.71891243802843
C            4.03280698166887       -4.09904138879594       14.00102819269229
C            3.81747621438806       -2.77804889718921       14.33877937741959
C            3.97665602105564       -1.79392877295794       13.38787253322557
C            4.35177278662190       -2.13800823369517       12.11112266296469
C            4.58004985103270       -3.46683058505843       11.75532175656932
C            4.29156963290397       -2.52482827032666        8.39858647755657
C            4.52818010389073       -1.54409608061949        7.47553866010952
C            5.64424457931289       -0.70637506442763        7.57280492580588
C            5.88321106346017        0.29817924731648        6.54982572837379
N            5.02826152467591        0.37727003473146        5.54447277160546
C            5.33040907902424        1.29691816907013        4.60711014811689
C            4.50365536297975        1.42327165397024        3.47802341900507
C            3.93430980112562        1.26466334853466        0.38611119122661
C            4.74308849895900        0.15749752316371        0.64175100640454
C            4.76154652643951       -0.92717315353674       -0.20192319310431
C            3.96972352445274       -0.92572858567465       -1.32898855680818
C            3.17187134831735        0.16646694848408       -1.60348964905958
C            3.13965027708254        1.27302565905068       -0.76729037633333
H            0.12257559930583        2.80664138265779       -1.49458199577542
H            0.46562961887996        1.61455900782582       -0.24345253509465
H            0.66862816552751        1.19840060680287       -1.94329886201897
H            2.09513130788471        3.84878618877708       -2.83058730700996
H            2.64347710287370        2.24119368667515       -3.27828071839306
H            3.74341433434229        3.34823692439757       -2.46087488353321
H            0.97941934534909        4.84782211009496       -1.18573314985648
H            1.04538677774936        6.69727223638408        0.41097385963624
H            2.44382028917121        6.52831575211355        2.42816975362412
H            3.76923310471423        4.50679728196280        2.81907298306087
H            6.12746057498572        3.83693704506654        1.78760890420134
H            7.59611870297953        3.68529156106135        3.74780828005712
H            9.23599641436715        2.53215689523489        7.12495547024389
H           10.81876683415529        2.27924478962766        8.98966733653360
H            9.27240086457178        2.75010631501370       11.13569025463238
H            9.45546300015119        4.53041463753333       12.80692137301436
H           11.08253210868537        4.31794599925951       14.64020423527429
H           12.49778943674548        2.33098774647540       14.79094688858454
H           14.30054646887814        1.32551369014549       13.92748469152688
H           14.29651697901779        1.06702662360311       12.18463619957358
H           14.75214213516657       -0.24130132520119       13.27302378122630
H           12.47000751876409        0.18834455477363       15.38374938314166
H           12.92148691305419       -1.37775608921223       14.72938275881642
H           11.25480673112784       -0.82081023142563       14.60339489953939
H           13.81035802958437       -2.23750992191916       12.88791368451784
H           13.51849866470759       -3.92773185540819       11.14675971092866
H           11.91111034832641       -3.54705549598981        9.32342513970296
H           10.60837377914607       -1.47687860482675        9.26876032496794
H            8.44805471972636       -0.83938001636960       10.59694408690887
H            6.94404137775327       -2.05371748700437       10.40086558401539
H            5.74672019339898       -4.59104040754817        8.03890035658597
H            6.17234131711103       -6.88612811292741        7.29923562813709
H            5.88109398740441       -8.74899730262865        8.87984372876388
H            5.17622817833648       -8.30106468224581       11.17709938125448
H            3.41590953623228       -7.77521209405954       12.45547482953700
H            2.52043216884650       -6.32772625904928       11.99947057458608
H            2.97737212327707       -6.59416603405128       13.68015803458810
H            5.91702992022012       -7.55898468452545       13.13822347764712
H            5.47573121393332       -6.38245865535661       14.36561429488281
H            6.67192620306161       -5.96708544452727       13.14071064257181
H            3.90096162539425       -4.85899668969825       14.75143160702457
H            3.52393719902574       -2.51742482981553       15.34271474567709
H            3.80759725932547       -0.76048837590146       13.64377953957594
H            4.47062414795130       -1.37174373274350       11.36611027559108
H            3.43207962767979       -3.16654850670249        8.31307788918601
H            3.85579471308824       -1.40810809541318        6.64713486316097
H            3.64300694074568        0.78761448923617        3.39272003834038
H            5.36800718542331        0.15845126202321        1.51662007083771
H            5.39197275834966       -1.77384591058598        0.01674855920580
H            3.97696153558648       -1.77260690589247       -1.99581383018574
H            2.56322112141608        0.15902342184968       -2.49095006009567
