91
 energy: -19.024184050578 gnorm: 0.000183671404 xtb: 6.5.0 (97a52f5)
C            1.96147809976469        0.38437784535689       -1.29969137326892
C            3.30564358494079        0.05359481703667       -0.61875976338468
C            4.35898109611031       -0.32091119552978       -1.68023378274108
C            3.79153483150219        1.30111450497451        0.13231782019293
C            4.00654993962144        2.48029121312011       -0.56578441829488
C            4.45737746076694        3.62228206876314        0.06498699970698
C            4.70720462014794        3.60299103456332        1.41976255223660
C            4.50146240960046        2.44534839265848        2.13140276159652
C            4.04093915037157        1.28539629312656        1.51042769204909
N            3.84086032031982        0.10683345245740        2.28210099412534
C            4.24707897217110        0.08393437598969        3.67143448634942
C            3.43644495289707        0.63219048043237        4.66277987553181
C            3.83185464944934        0.60643039161779        5.98130048308980
C            5.03922074621110        0.03310215411252        6.33211632548881
C            5.85193757271854       -0.51637522051768        5.35921481080555
C            5.46065178926857       -0.49265188042505        4.03970807472194
C            3.32453820534712       -1.07183038876171        1.68889869705657
C            3.04492616200197       -2.18166514752814        2.48796629917926
C            2.57411549553658       -3.34819631467890        1.94687094227443
C            2.38484780305426       -3.46972405287343        0.57074857070490
C            1.94338133983046       -4.73564783438501       -0.02555124104084
C            2.35299892467917       -5.11614478324156       -1.28919286306002
C            1.96625552065924       -6.32310334184089       -1.87928527175283
C            1.12467684967913       -7.22382048120649       -1.25572349557575
C            0.72516471813599       -8.47533039136956       -1.91113684030108
C           -0.55195702707463       -9.00637412036406       -1.73441732560059
C           -0.92949924829076      -10.14835087881278       -2.38933218875485
C           -0.04732147039926      -10.82913036328605       -3.23030217148614
C            1.25773158324506      -10.34058657922041       -3.38787337930134
C            1.60907060996803       -9.17030056820036       -2.74234664703710
C            2.30370611503821      -11.08162688876660       -4.23157212491964
C            3.48521643789394      -11.46135519203409       -3.31524683676250
C            2.78579970914952      -10.14245089885596       -5.35508144445086
C            1.75053409110449      -12.36358056776552       -4.86940962973977
C            2.58214194293497      -13.15430070427293       -5.64865603985096
C            2.12512245768763      -14.30795113570310       -6.25317268528553
C            0.81232974878482      -14.69263818013232       -6.08972213058059
C           -0.02954915556473      -13.92426106099134       -5.32176625181028
C            0.41804819622564      -12.76011924711278       -4.69908337845072
N           -0.48431965774370      -11.99280810298277       -3.91062330754523
C           -1.88370977113543      -12.36056350724805       -3.86437436309991
C           -2.81537623857866      -11.68322554398326       -4.64800006290972
C           -4.14673483564458      -12.03075092818473       -4.60915539868919
C           -4.57028435770504      -13.05816609666294       -3.78820926540505
C           -3.65738763723274      -13.73747511326345       -3.00425041828328
C           -2.32489975577743      -13.39285739539939       -3.03954690254132
C            0.64840960366113       -6.88496346747385        0.06360378241168
N           -0.14423590063365       -7.60247268247849        0.83125443128672
S           -0.36125206640422       -6.78382676468054        2.24254814177124
N            0.57595993076409       -5.47555630344372        1.89747979872232
C            1.07645263007970       -5.64022382461047        0.69140407030309
C            2.64724991674533       -2.34724425742282       -0.22118280929897
C            3.09399375513292       -1.15125432999557        0.30798405209047
H            2.05980839152837        1.21956556558662       -1.99109392940689
H            1.21437715152472        0.65214311322412       -0.55330441724463
H            1.58180166333448       -0.46569895988465       -1.86419606052954
H            4.52917701366777        0.49891965615569       -2.37629368698661
H            4.04675034259029       -1.18683361436594       -2.26179358561625
H            5.30903965228015       -0.56028103485561       -1.20392034481017
H            3.82103442429627        2.50628382407194       -1.62541187282171
H            4.61547275995244        4.52596445876218       -0.50078105283380
H            5.06191406369055        4.49043020042321        1.91824178610639
H            4.69709493536463        2.42653773758391        3.18849638714501
H            2.49708935678025        1.07379946027181        4.37921264046231
H            3.19837244946272        1.03375371059627        6.74131043657601
H            5.34719254708675        0.01425767651694        7.36479838115505
H            6.79343872071712       -0.96371629487103        5.63325816474266
H            6.08585889648912       -0.91665286151697        3.27336451509979
H            3.20120090828914       -2.10870452675710        3.54946786477357
H            2.35238273307907       -4.18955003389897        2.57815313844207
H            3.01973844972292       -4.46755416183822       -1.82994383715355
H            2.31708302639936       -6.55138599406801       -2.87063225208036
H           -1.24012928636673       -8.49953694516597       -1.08168877320877
H           -1.92256720962992      -10.53851139780126       -2.25496456767845
H            2.60661304641337       -8.78798374387294       -2.85609166637882
H            3.92693261467214      -10.58115692740745       -2.85089609753812
H            4.27216873568692      -11.96990662576075       -3.86966534333970
H            3.14980088342492      -12.12704645229063       -2.52071113404717
H            3.21418229036553       -9.22664684851638       -4.95103413959254
H            1.95428910106014       -9.86753949876948       -6.00295240004275
H            3.54799854809771      -10.61839588502984       -5.96997322750901
H            3.60805142907780      -12.86132844439208       -5.78851034798830
H            2.79255974133543      -14.90523804171844       -6.85274245512062
H            0.44808661720091      -15.59094178125999       -6.56109963440739
H           -1.05502541117179      -14.22106063346250       -5.19396602253783
H           -2.47396201562433      -10.88595422995047       -5.28497292636987
H           -4.85909504022407      -11.50112480089236       -5.22043935683203
H           -5.61294025764489      -13.32958220276160       -3.75940664053806
H           -3.98912638031627      -14.53832563659083       -2.36385039918143
H           -1.60626147175061      -13.91395614372932       -2.43141390217620
H            2.46755175815415       -2.41588297028175       -1.27802109108301
