102
 energy: -21.252093875396 gnorm: 0.000559180377 xtb: 6.5.0 (97a52f5)
C            1.05576847246160       -0.11629006031590       -0.20473714305146
C            2.59699963797809       -0.10978161825888       -0.15115831696664
C            3.17601721365907       -0.14789899721643       -1.58076364910501
C            3.05530521150521        1.18744993769546        0.52860822456995
C            2.73179928346388        2.41009456100069       -0.04083314169757
C            3.12619798819740        3.60184963250555        0.53282109939911
C            3.86008371713688        3.59090378900141        1.69873394450753
C            4.19052975534287        2.39080553901439        2.28134184398544
C            3.79676105341373        1.17856623414425        1.71672776364168
N            4.16234122158736       -0.04228867789597        2.34924477033261
C            4.94137505864015       -0.00601422679542        3.56869761538830
C            4.33173727123567        0.25583812197348        4.79355781981330
C            5.07580870087435        0.29187087941771        5.95114494699342
C            6.43829498478391        0.06632665693465        5.90641920968939
C            7.05596389275544       -0.19512081247431        4.69842716319658
C            6.31582927394881       -0.23092195919157        3.53835411006860
C            3.79803098220769       -1.29156806796107        1.78793640511271
C            4.17049409031523       -2.47417949930948        2.42900666844338
C            3.84423367396120       -3.70209912503677        1.91322616483038
C            3.12520671656186       -3.79905923846642        0.72370377960159
C            2.77738952869395       -5.10767370001535        0.13463100193579
C            2.46016043469393       -6.20741391776340        0.93550129054516
C            2.12172921415736       -7.41654665180750        0.37397168889104
C            2.09448578583406       -7.57762124687147       -1.00636385338739
C            1.70994595092706       -8.87706820303309       -1.60327551785758
O            1.06176676734232       -9.69316379832651       -0.97067088946084
C            2.12163500311256       -9.14971562836149       -3.00641025493748
C            3.44671147473807       -8.99193979032573       -3.40482734698296
C            3.81226361731064       -9.18590257018450       -4.71438247471181
C            2.86591811657754       -9.54036862943528       -5.67802296737055
C            3.25388228983768       -9.68864476333460       -7.09604155592473
C            2.44240474916113       -9.20064081336665       -8.11810967419598
C            2.83967959031944       -9.29931576952677       -9.42618936578719
C            4.05480185433380       -9.89022109699248       -9.77521940840369
C            4.87456968853091      -10.41139927137438       -8.76458384954233
C            4.46066347755301      -10.29340203420536       -7.45045038070185
C            6.20452818442182      -11.10973323470561       -9.07835476459398
C            6.12575795462334      -12.56161458892211       -8.56378013895213
C            7.33845391720515      -10.35321376691412       -8.35649119044463
C            6.51709795476241      -11.14029498630051      -10.58089721914478
C            7.68819027727397      -11.73651018842855      -11.02463671685256
C            8.01745926340187      -11.77523619867172      -12.36448646106556
C            7.17199340423299      -11.21038013223106      -13.29412783969020
C            6.00545377531371      -10.61540178657740      -12.87716106626988
C            5.65618602601587      -10.57218937989245      -11.52831991781056
N            4.44115247960445       -9.94403133659061      -11.13760462008834
C            3.61950920859694       -9.29542331246555      -12.13760169999368
C            3.67076303126228       -7.91333489610196      -12.30505977429176
C            2.88956570852570       -7.29457729298470      -13.25460973680108
C            2.04556100150602       -8.04332618867283      -14.05209903981564
C            1.98400462682694       -9.41494603158153      -13.89642973762499
C            2.76299114245285      -10.03773371508504      -12.94749174428517
C            1.54287103821412       -9.71917552581397       -5.26776235195565
C            1.17993227872851       -9.53422999740607       -3.95487271087517
C            2.40904338221998       -6.48390944834251       -1.80890772601995
C            2.74506735729235       -5.27532775892845       -1.25101381214163
C            2.74530870498315       -2.61317313547314        0.09315248595751
C            3.06306406546761       -1.36588741180140        0.59709237974338
H            0.67406641802620        0.74636913717759       -0.74838112264441
H            0.64079977889844       -0.08968897757560        0.80216945915255
H            0.67946379970076       -1.01027919620214       -0.69937158427059
H            2.85392857925421        0.71328349930806       -2.16370547850044
H            2.85827554898512       -1.04178493158796       -2.11494521977702
H            4.26488846462624       -0.14478216210561       -1.54978746263740
H            2.15914515720234        2.43197485898716       -0.95160744179504
H            2.86213766690524        4.53859105404453        0.06967510581348
H            4.17267815779369        4.51788383342110        2.15123965893360
H            4.76589586237280        2.37857401179476        3.18969127334960
H            3.26994469951042        0.42875220517960        4.81744573159981
H            4.59471955552028        0.49529776837231        6.89386899535818
H            7.01903222167829        0.09314644723507        6.81397290965837
H            8.11879128435399       -0.37066788431450        4.66425537341023
H            6.78712712049981       -0.43182342729836        2.59210674966709
H            4.72793518582233       -2.41215482737956        3.34646582179968
H            4.15897628884572       -4.60065995892379        2.41498090813525
H            2.46234363891563       -6.09464136740603        2.00569001804564
H            1.86773192082188       -8.25662038407060        0.99713145329104
H            4.18097725065599       -8.70337665801315       -2.67230150382054
H            4.83477360736828       -9.03609483007766       -5.01507156403533
H            1.51189860299345       -8.72070499311452       -7.86843174612710
H            2.20980903118733       -8.91022450352759      -10.20609607522795
H            5.07901920615171      -10.68962916827892       -6.66604805270051
H            5.92609724999605      -12.59314001923344       -7.49389738430152
H            7.05710512555980      -13.09701079256678       -8.74063278399901
H            5.32632233312823      -13.10101611128466       -9.07044520682688
H            7.17720603028243      -10.32743625638837       -7.28006356819692
H            7.39549190712748       -9.32519698667049       -8.71227718758505
H            8.30443007737144      -10.82349216633269       -8.53265629843759
H            8.35860077384918      -12.17815640000493      -10.30811980865037
H            8.93428422693600      -12.24406951152637      -12.68284281905078
H            7.42435000894376      -11.23419679980010      -14.34176262620879
H            5.34478614956858      -10.17068742549065      -13.59962629430894
H            4.33267098993347       -7.34002871501069      -11.67963273355879
H            2.93713725401799       -6.22475686136158      -13.37646286154348
H            1.43512115737916       -7.55730270480265      -14.79560347722758
H            1.32417519836655       -9.99765859938974      -14.51820658132007
H            2.71994176704199      -11.10478877768164      -12.81572944782293
H            0.80417560847730      -10.00857007466046       -5.99506169047771
H            0.15687917323853       -9.66574540943100       -3.64708115232019
H            2.37943577645066       -6.59252595948072       -2.87914773995445
H            3.00313848546812       -4.44626222838589       -1.88680028120289
H            2.16677113268968       -2.68023261610560       -0.80965858157126
