71
 energy: -16.443439116277 gnorm: 0.000529024258 xtb: 6.5.0 (97a52f5)
C            0.73845033177576        0.08188338160329       -0.07885307828962
C           -0.47089481592303       -0.09366409642408       -0.07775478237837
C           -1.88062735284902       -0.13636835869085       -0.07325913197177
N           -2.49233793543651       -1.32419579840731       -0.06746816758466
C           -3.82824120535666       -1.32292719077156       -0.05970959168067
C           -4.51457903646470       -2.55532915450891       -0.06067835320599
C           -5.22330635914612       -3.55089426679299       -0.06821965127166
C           -6.13107002460629       -4.63026995562324       -0.08008934136876
C           -6.29109241833520       -5.44128432109591        1.03833094134087
C           -7.19913747134944       -6.47902020393764        1.03145468789219
C           -7.96379337518218       -6.72150206361672       -0.09146134848409
C           -7.81777205126728       -5.92498958205014       -1.20871132102620
C           -6.90894015746925       -4.88821490216025       -1.20416172182797
C           -4.60202105039950       -0.15323993942709       -0.05296140861668
C           -6.00840150767865       -0.24491868161708       -0.03401167405372
C           -7.21594428173011       -0.42518399827938       -0.00833852705884
C           -8.59254281795571       -0.72751509492186        0.02766338025757
C           -9.01883179533980       -2.05038649846596       -0.02558360110697
C          -10.36179216130482       -2.35878090044979        0.00806933482714
C          -11.29994306009041       -1.35039948486270        0.09602231031083
C          -10.89261088189270       -0.03270995794527        0.15034338145488
C           -9.54941312003749        0.27756105710975        0.11715671000897
C           -3.95915948865330        1.08539482469962       -0.06459075836929
C           -4.69643981020645        2.28502591096337       -0.06876993415744
C           -5.35115955198906        3.31620964476911       -0.08059881144425
C           -6.11969809598988        4.49868378206802       -0.09900363422483
C           -7.42828498422780        4.48756593973385       -0.57081004104768
C           -8.18028413221803        5.64332229327817       -0.58790186985367
C           -7.63735982929070        6.82829406282941       -0.13417202357451
C           -6.34036394835127        6.85592042971817        0.33673506222012
C           -5.58692449253239        5.70109681276440        0.35422249503400
C           -2.56352350710024        1.08899976762387       -0.07475280577715
C           -1.83724462910111        2.29726601730393       -0.08496384959947
C           -1.13397964586877        3.29574412285551       -0.09038598513029
C           -0.26049070556454        4.40297329275051       -0.09887738526371
C           -0.15397578399947        5.23621824672726        1.00950424768914
C            0.71536336102152        6.30652025580266        1.00423818474728
C            1.49394377013336        6.55986019554351       -0.10665660163213
C            1.40069141190550        5.74174363736674       -1.21401208299599
C            0.53005123645639        4.67263980394769       -1.21123452094424
C            2.10947405466643        0.41175584909982       -0.07348171358014
C            2.50375761668093        1.74528500934318       -0.10449305251288
C            3.83925803200451        2.08582335249052       -0.09981134705264
C            4.80303915199968        1.09877965160287       -0.06390038046244
C            4.42812199832587       -0.22928000680012       -0.03279438871446
C            3.09216274029816       -0.57152172568967       -0.03726628403833
H           -5.69655099853638       -5.24492292279841        1.91420501908363
H           -7.31305468022552       -7.10015116995180        1.90475846549072
H           -8.67489072688480       -7.53141743512899       -0.09541177769967
H           -8.41589052080339       -6.11248012350574       -2.08547281590856
H           -6.79475952281711       -4.26190058097828       -2.07255301359885
H           -8.28240127925595       -2.83231537271805       -0.09778718490804
H          -10.67865748953987       -3.38789469337150       -0.03496533750269
H          -12.35005582871938       -1.59172051267196        0.12152238556287
H          -11.62505108243810        0.75491586301775        0.21909088179483
H           -9.22606805790499        1.30353188301463        0.16074403077698
H           -7.84702009949761        3.56068835435687       -0.92411190380006
H           -9.19291665783805        5.62099854217468       -0.95625821444055
H           -8.22571404030944        7.73124199791294       -0.14732251450077
H           -5.91550873105186        7.78085639849208        0.69118364497951
H           -4.57475579209345        5.71770951674595        0.72065856024855
H           -0.75952528295390        5.03198724971600        1.87599690324449
H            0.78749576668513        6.94516078308710        1.86940771401215
H            2.17429272737930        7.39573373958877       -0.10923227072193
H            2.00958268781527        5.93758416813842       -2.08142675765360
H            0.45516499712033        4.03060099971735       -2.07245946797893
H            1.74741896737689        2.51059630854804       -0.13649340708211
H            4.13001100732933        3.12325776275042       -0.12447087789537
H            5.84748894505671        1.36471444467028       -0.06046299480904
H            5.18056631271478       -1.00039193320220       -0.00472130211226
H            2.79494715505791       -1.60607442697094       -0.01271932867645
