103
 energy: -21.323612391482 gnorm: 0.000501027752 xtb: 6.5.0 (97a52f5)
C            0.86838723785871       -0.13170393413053       -0.27092894706135
C            2.40911317440472       -0.07815286235737       -0.29963788915646
C            2.91344539861766       -0.10764135792373       -1.75726952358266
C            2.86245099677460        1.23755718794173        0.34789958388095
C            2.47416863187085        2.44597022782495       -0.21124932543582
C            2.86078838893371        3.65275445155201        0.33551389424498
C            3.65136466234265        3.67199016652951        1.46352173323436
C            4.04619027445047        2.48656776303982        2.03565194949347
C            3.66171202036941        1.25969430625166        1.49745542552958
N            4.09378556792637        0.05550602073680        2.11859043132263
C            4.87452210553415        0.12188126858226        3.33540501468912
C            4.25685864963181        0.36306331117792        4.56034454552851
C            4.99928940425163        0.42206739386515        5.71787881230596
C            6.36813822147275        0.24078025515334        5.67248849585551
C            6.99390007058840        0.00153000571054        4.46420869109864
C            6.25549100666187       -0.05694058854880        3.30400992347533
C            3.75647200327359       -1.20837270637215        1.57110200666551
C            4.21755638948099       -2.37222131703665        2.18574669517078
C            3.90546680088867       -3.61318448597821        1.69329588714094
C            3.10594293865075       -3.74368386697774        0.56038178396662
C            2.74965568120956       -5.07324956165853        0.02236951505244
C            2.58722316788578       -6.17096386730809        0.86909014624722
C            2.24867686750147       -7.40816483562537        0.36363882473836
C            2.06147823242964       -7.57490378051312       -0.98869126059960
S            1.61318195722533       -9.20391842905147       -1.60195420804962
O            2.43156613334301      -10.25112336741198       -0.86957878043028
O            0.09947075815297       -9.30790740275386       -1.59432726749752
C            2.20661270999907       -9.09862476334884       -3.29211156408325
C            3.55816385813728       -9.05262458003490       -3.54600017904313
C            4.01303003357355       -8.95481306649866       -4.84382337675644
C            3.11661681267010       -8.90503137454157       -5.91308037463143
C            3.59655520499732       -8.80409513523867       -7.30738841386920
C            2.87676984472422       -8.09584452593970       -8.26650013364868
C            3.32530273223782       -8.02327740315535       -9.55996729690246
C            4.50905683190017       -8.64560984011548       -9.95517600157598
C            5.25296460706216       -9.35893720389971       -9.00625291335569
C            4.78077678347181       -9.42364747006794       -7.70742855611975
C            6.56317074809691      -10.07048005258242       -9.37063154688690
C            6.40037298906315      -11.57650277087186       -9.08174095657021
C            7.69460901120298       -9.48335586279332       -8.50219325736345
C            6.94126122644725       -9.89626984426940      -10.84812110053494
C            8.10958908915384      -10.46865104211456      -11.32886931971123
C            8.49090426353964      -10.33377418373864      -12.64843670188951
C            7.70182779138317       -9.61544735718245      -13.51973217201447
C            6.53892923372096       -9.04112415725847      -13.06561900379512
C            6.13840970058784       -9.17090322448691      -11.73691312678969
N            4.92813159126719       -8.56037553138559      -11.30713668079047
C            4.09613793935722       -7.87245045462738      -12.27121954766679
C            4.11939018766811       -6.48312456156038      -12.36789840856886
C            3.32304080463153       -5.83344050741048      -13.28361600132190
C            2.49290318996050       -6.55776514091909      -14.11731912189765
C            2.46099387286003       -7.93635584351682      -14.03306289393995
C            3.25498768574881       -8.59006626852536      -13.11834390294933
C            1.75084773316660       -8.95843032668611       -5.62975239996160
C            1.30455470164502       -9.05316964761619       -4.32927307948702
C            2.21177932666451       -6.50475769854440       -1.84259141658011
C            2.55653048391268       -5.26639264087652       -1.34651095992997
C            2.64464397569052       -2.57618354927772       -0.04841232333570
C            2.95434418548687       -1.31480067197766        0.42762272362063
H            0.43232834048497        0.71641699153702       -0.79608053053836
H            0.50751537683391       -0.11239319035246        0.75667304685515
H            0.49346811690091       -1.03894538319958       -0.74160594627986
H            2.53239051528385        0.73754137185756       -2.32769344796210
H            2.59963271417043       -1.01619677926428       -2.26828218347206
H            4.00166888881241       -0.06717877427729       -1.78258385396552
H            1.85612379915908        2.44446692131051       -1.09199761409595
H            2.54605334038539        4.57794663252740       -0.11889261501323
H            3.95774094005150        4.61093188394981        1.89492370559646
H            4.66594658404946        2.49725494948616        2.91430440688702
H            3.18990032155090        0.50009307946740        4.58424910208402
H            4.51179905299940        0.60878749092433        6.66067362962246
H            6.94778435199806        0.28539575823824        6.57994606178356
H            8.06175726597410       -0.13931897808180        4.42946730508127
H            6.73278139749372       -0.24112213618203        2.35743775052109
H            4.83164090939068       -2.28621517084703        3.06395496203630
H            4.29040926978401       -4.49577930097791        2.17401139148699
H            2.71061097232964       -6.04233759533362        1.93013052317971
H            2.12452802695300       -8.25415473019626        1.01945765490905
H            4.25149150572897       -9.08824385720717       -2.72207351997190
H            5.06977273536317       -8.89840853399282       -5.03825387186831
H            1.96920605360724       -7.59252387335915       -7.98120436629421
H            2.75751619130558       -7.47731680149215      -10.29159121616706
H            5.33311226053344       -9.98577397471911       -6.97721505129500
H            6.15759604990036      -11.75687688902757       -8.03595653228773
H            7.31365896293737      -12.12462574400790       -9.30670692896397
H            5.59909614861004      -11.99459690053057       -9.68974038751683
H            7.48278862631162       -9.60145368709538       -7.44090495489721
H            7.81427232521291       -8.41969707441169       -8.70440170452435
H            8.64581859909692       -9.97276552747597       -8.70391088686559
H            8.73509956391270      -11.03157147376935      -10.65837469965019
H            9.40397827097297      -10.78821134211114      -12.99671662417505
H            7.99468854239086       -9.50485215160296      -14.55104071606432
H            5.92140021961697       -8.47751405813170      -13.74184747129549
H            4.77107388524702       -5.92906388487530      -11.71514335115977
H            3.34745326662466       -4.75812905096210      -13.35041636503979
H            1.87009419894845       -6.04732812301217      -14.83356458228689
H            1.81353118692959       -8.50075286706879      -14.68394669219907
H            3.23642707053975       -9.66319325672590      -13.04210123910186
H            1.04271759891897       -8.94274777988245       -6.43968482601790
H            0.25047940627212       -9.09289350432831       -4.11051074892014
H            2.06066213151929       -6.64183260576156       -2.89969861209124
H            2.69474956526675       -4.43990401457838       -2.02139745690458
H            2.00891955786049       -2.66750935812821       -0.90960669262336
