82
 energy: -16.893432972431 gnorm: 0.000333068978 xtb: 6.5.0 (97a52f5)
C            0.83779636014077        0.20762312670270        0.13130524228524
C            2.37388921078972        0.15444656724897        0.01894339821412
C            2.79951350451840        0.22686195044574       -1.46244295988098
C            2.95910919191549        1.36725548525290        0.75502512166494
C            2.65861561977728        2.64757594541419        0.31402951459962
C            3.16903793274087        3.76650850147534        0.94055428426655
C            3.99578868285870        3.62243094172646        2.03318223079856
C            4.30188534231924        2.36317107749694        2.49101614437716
C            3.79357472942311        1.22320240055639        1.87029320124391
N            4.13973206852555       -0.06277508306982        2.37186745182043
C            4.94536547500798       -0.16166072316960        3.57028396126453
C            4.37417451264392        0.04155189870629        4.82436474785107
C            5.14274485901738       -0.03664198092949        5.96379852370299
C            6.49186571159539       -0.31986547884222        5.87082744201083
C            7.07149187156988       -0.52447016103301        4.63334359467846
C            6.30680884524015       -0.44550389345053        3.49124265871712
C            3.70516867791905       -1.24079290325435        1.71596741691358
C            4.12092546316474       -2.48854646379042        2.18397232448831
C            3.72866947664439       -3.64952382733705        1.57045825299105
C            2.88199067165551       -3.60825760254536        0.46774257004430
C            2.46267055620631       -4.82552245883460       -0.25818755999881
O            1.86641025168486       -4.73414662465275       -1.32003837434852
C            2.80124446682151       -6.16635467234160        0.28815222322235
C            2.50674834314863       -6.52826154193918        1.59849079465926
C            2.82526323391742       -7.78139654250821        2.05349034972928
C            3.44020675914904       -8.72265252629023        1.22527589394420
C            3.73546860830837       -8.37459769898023       -0.10059420272012
C            3.40142821444288       -7.10784033016818       -0.54067294755765
C            4.41904000190633       -9.35166674154008       -1.06570709580712
C            5.74041299859897       -8.71833230478152       -1.54707898889211
C            3.47945375572566       -9.59254316932661       -2.26432082319633
C            4.73520324644161      -10.70396953555975       -0.41334189710870
C            5.36232633897765      -11.69290890226856       -1.15673255688727
C            5.65950430569097      -12.92655359321059       -0.61388373528536
C            5.32815271770814      -13.19599605163116        0.69593025931647
C            4.70541231644598      -12.23075786235026        1.45062166486847
C            4.40249674992954      -10.97824004476918        0.91891489139481
N            3.75539521965160      -10.00681774679349        1.73332855609451
C            3.40701030604983      -10.34573878914648        3.09687022385227
C            2.10719069563589      -10.72641189341864        3.42205287988522
C            1.78300048105089      -11.07247387848591        4.71449884175424
C            2.74884706073073      -11.04444650303014        5.70215213568380
C            4.04173668043810      -10.66681011487545        5.39398368229855
C            4.36994186250623      -10.31895012498139        4.10302772486830
C            2.46353869565169       -2.36528474034429        0.00699783437637
C            2.85991126726601       -1.18036126458268        0.59898934306858
H            0.44136337441467        1.12715798485734       -0.29640228574440
H            0.53196214166585        0.16354639990507        1.17595538340038
H            0.37330680192388       -0.62757275438889       -0.39057965811001
H            2.45526508117574        1.14671225803136       -1.93187495331467
H            2.39151614269426       -0.60402653337039       -2.03537457779913
H            3.88504180318086        0.19191281578338       -1.54698073774799
H            2.01082811718770        2.77347230878015       -0.53592310276009
H            2.92271560005664        4.75034053239669        0.57561321890111
H            4.39961579521228        4.49170999103679        2.52616699078361
H            4.94867838428100        2.24690236126104        3.34224130229913
H            3.32275613578468        0.26243301128677        4.88487977404174
H            4.69144423603835        0.12451357561987        6.92911318887757
H            7.09235531720602       -0.38032264272760        6.76379278171654
H            8.12405712057832       -0.74456417212746        4.56175490805187
H            6.74911329102713       -0.59786403285191        2.52218647491394
H            4.77061709901025       -2.53141278251064        3.03961427417295
H            4.08728538754059       -4.59747856307850        1.93046811664476
H            2.01684296948335       -5.81995291484697        2.24437831783391
H            2.59899303040793       -8.05382333575885        3.06883460567137
H            3.60980444283069       -6.82245464465541       -1.55563971252760
H            5.56704599806577       -7.76313294833756       -2.03994887798626
H            6.25630620161489       -9.36427799402520       -2.25548783999435
H            6.40709647347327       -8.54468239262774       -0.70320035450760
H            3.24076788416771       -8.66109659946807       -2.77507632138515
H            2.54479436348447      -10.04081452869087       -1.92939284012013
H            3.93079357159263      -10.26211493705960       -2.99460540752955
H            5.62230674189656      -11.49590426130876       -2.18218376912522
H            6.14799605735297      -13.67769954848262       -1.21295191641667
H            5.55616383948261      -14.15755083731912        1.12623394838644
H            4.44261258910927      -12.43928568921018        2.47225200838336
H            1.36433011821189      -10.75030317728106        2.64394516782721
H            0.77497984801930      -11.36809078791973        4.95532720828620
H            2.49412001401529      -11.31881000981336        6.71284215856360
H            4.79475993798545      -10.64627024155859        6.16469671017990
H            5.37420036248599      -10.02551490159364        3.85143863501196
H            1.81470038578827       -2.34283412874467       -0.84928705814791
