83
 energy: -16.961182845384 gnorm: 0.000933128979 xtb: 6.5.0 (97a52f5)
C            0.72612511103729        0.24870057819901        0.10746348825861
C            2.23342400009902        0.02151008262116       -0.12645686698428
C            2.54958483619049        0.07208816028015       -1.63448819207040
C            3.01083600298059        1.14432624161839        0.57424813498529
C            2.77826450982615        2.46440278008679        0.21774412952814
C            3.45113682764342        3.50669563783040        0.82262927975653
C            4.38045317592913        3.24283153296096        1.80501097574701
C            4.62953540875844        1.94210328076167        2.17233687028723
C            3.95767047478550        0.87912973152922        1.57152057226115
N            4.24967227230699       -0.45221615739747        1.97608977376266
C            5.22934590865661       -0.68698655220136        3.01546929749037
C            4.87257268895314       -0.59286216592288        4.35859925856524
C            5.80362932672710       -0.82248402711250        5.34633775709811
C            7.10322212487901       -1.14981170236638        5.01054727628880
C            7.47017041496798       -1.24725634046234        3.68213415570208
C            6.54262574825595       -1.01871083593179        2.69078124432843
C            3.57233338408190       -1.55682880615365        1.39209516444842
C            3.86882347475968       -2.84919515733368        1.82141063250133
C            3.22412875537191       -3.93973320423924        1.28913705561573
C            2.26753880991105       -3.75905956227874        0.31759238893734
S            1.37389335832140       -5.13584241709034       -0.41795545504658
O           -0.07801853162835       -5.04047478522494        0.01152157525448
O            1.71157858599020       -5.18286006054181       -1.89685702223561
C            2.14048344106503       -6.53103074616492        0.40700518259614
C            1.72234866753998       -6.90779297873023        1.65957072984868
C            2.34344517570926       -7.95859219328103        2.29283262672385
C            3.38799648719397       -8.65260987279988        1.68276172526892
C            3.80422482510682       -8.27452560793103        0.39979060303179
C            3.16176062096465       -7.20929607977023       -0.21452893880424
C            4.94258189809483       -8.99447098306698       -0.33328253861429
C            6.04403214667664       -7.96500832681658       -0.65842621627316
C            4.37737402008276       -9.59623999910170       -1.63555181084962
C            5.56127306392902      -10.12513017166815        0.49967525492198
C            6.60615188582097      -10.87049335912107       -0.02660963458098
C            7.19125566097211      -11.89913075293354        0.68375154747612
C            6.73390974946055      -12.20501519234057        1.94685009999651
C            5.69888484562349      -11.48020497902177        2.48804372117878
C            5.09979972833573      -10.43630505365113        1.78495932384566
N            4.02614875858573       -9.71597581873713        2.37772455303705
C            3.59574065683702      -10.04898461127888        3.71851875322153
C            2.44019863462868      -10.79795480592059        3.92861945104399
C            2.03278261016549      -11.11012702950290        5.20600947211516
C            2.77102337263715      -10.68199309095927        6.29264708031562
C            3.91895757379037       -9.93811033381594        6.09843541210710
C            4.32962023415530       -9.62229280978207        4.82307437956461
C            1.96683531518254       -2.49081232855742       -0.11975062946388
C            2.60292758828501       -1.37137755355884        0.39877613663667
H            0.40722139737306        1.21988488224900       -0.26702071763045
H            0.49736325655778        0.20731357310799        1.17170279890047
H            0.12729793960141       -0.50915010142080       -0.39485004245560
H            2.27990859836584        1.03493306888773       -2.06503876111213
H            2.00492511203836       -0.69719355641830       -2.17945520111947
H            3.61392001129276       -0.08631868054564       -1.80408203799202
H            2.05681268245277        2.68321272215895       -0.55022079914244
H            3.25077080781487        4.52355615583840        0.52745350298612
H            4.90922831275274        4.05220353803566        2.28157503571356
H            5.35579984455587        1.73203763791619        2.93689783217759
H            3.85687895778515       -0.34071588422112        4.60823816041281
H            5.51814812578916       -0.74745573960789        6.38287106166912
H            7.83094882508203       -1.32895721661391        5.78506458872480
H            8.48405368791094       -1.50354994583768        3.42152303882896
H            6.81696283053151       -1.09432349339072        1.65322885808487
H            4.61329407416230       -2.98738736209534        2.58474117276492
H            3.46381499073767       -4.93128284110796        1.63122067684694
H            0.91867387381641       -6.37005683305817        2.13512911404552
H            2.02760911992184       -8.25064253570667        3.27808119605783
H            3.46241029529148       -6.89157972687532       -1.19726472667982
H            5.65957154706132       -7.15132783522267       -1.27111913180936
H            6.86862322376035       -8.42354338296280       -1.20171733336137
H            6.44369361730651       -7.53469891100426        0.25915021054032
H            3.94137284202425       -8.82699600162110       -2.27089388884051
H            3.60022167744728      -10.32563711304450       -1.40977766968019
H            5.15309197829642      -10.09882993693454       -2.21095937693866
H            6.96996812832721      -10.64312654055013       -1.01358085022091
H            8.00176157234196      -12.46278015764478        0.25129452752792
H            7.18439212127991      -13.00931233093754        2.50545885062134
H            5.33720737181690      -11.71973446587248        3.47180889207727
H            1.87341779222439      -11.12796985150239        3.07563725721189
H            1.13696395082333      -11.68968181883372        5.35856707875220
H            2.45075248003746      -10.92797193286008        7.29178164799854
H            4.49349353496823       -9.60302016726099        6.94657582534383
H            5.21955721127200       -9.03975706678332        4.66048248173928
H            1.21755457753642       -2.37782172141069       -0.88379105082163
