62
 energy: -13.800268010426 gnorm: 0.000853592842 xtb: 6.5.0 (97a52f5)
C            0.92274718585270        0.84399602622246        0.21798214547904
C            2.29360142686276        0.31602928424351       -0.23498129183672
C            2.17401565713376       -0.26912611927717       -1.65918196806542
C            3.29205690522575        1.48806007343398       -0.22550322786720
C            3.45273860603242        2.32598585314703       -1.31800019772753
C            4.34331899869628        3.38080570935982       -1.28986468138930
C            5.09344254398179        3.62133962650056       -0.15895623545387
C            4.93705910378021        2.81750312115698        0.94407214193757
C            4.02850424234584        1.76239157021667        0.93487830915250
N            3.87508987836797        0.92824271696459        2.07901035516889
C            4.08612692070304        1.38417836568505        3.41714225518413
C            3.84685973789273        2.70522435768825        3.78412481590148
C            4.03830110862755        3.11923470575137        5.08197975652926
C            4.46743414350286        2.21990033722064        6.03646262347236
C            4.69399014819776        0.90354284500362        5.68932383585017
C            4.49517631817035        0.46790021240354        4.39234983587089
C            4.78355938731695       -0.97220063439215        3.97169892523620
C            4.70058555068819       -1.94729587496593        5.15088805323642
C            3.63098434838216       -2.27302977244363        5.95422100995600
C            3.80094137546678       -3.19999676546397        6.97914269123125
C            2.71972005912022       -3.54237118446823        7.80633301649300
N            1.82301278995393       -3.82136409772882        8.48934255978889
C            5.05408748859779       -3.78337469524881        7.17451358658811
C            6.12864987806388       -3.45978633301756        6.37461011610266
C            5.95131459780205       -2.53525802010192        5.35547616669720
C            6.90328187545532       -2.00781332889247        4.37035743955120
C            8.25300702412964       -2.26711035255120        4.17700452996626
C            8.92021654087556       -1.60660114738404        3.16677460714325
C            8.26784895311306       -0.68767432517355        2.34154658817986
C            8.96185707963076       -0.01827774423339        1.32226864852527
N            9.53642903614698        0.53822677493643        0.48054517780343
C            6.91537909535323       -0.43463574479456        2.54215956400105
C            6.24639992135494       -1.09287802459192        3.54773556021623
C            3.87836487219802       -1.38999447466696        2.81319879123104
C            3.50206140618115       -2.70368739963309        2.62048711633931
C            2.73908926488780       -3.05797394217464        1.52926847939681
C            2.35955560611974       -2.10283154944136        0.60817250197627
C            2.74036531265678       -0.77868658696957        0.75035881889416
C            3.49426477479429       -0.42490874910060        1.87549137551876
H            0.56802741493084        1.62875769192952       -0.44866849625755
H            0.98801984794365        1.25859835440289        1.22315696446539
H            0.18269326006191        0.04507866164936        0.22998407880507
H            1.82241385893327        0.47628937512271       -2.36923323301758
H            1.45668151320312       -1.08595127274511       -1.69751155566297
H            3.13733546690891       -0.64306632098017       -2.00291267839731
H            2.86936025707473        2.16615724584143       -2.20644548305820
H            4.45453055230155        4.01512578195458       -2.15395848728066
H            5.79828816395109        4.43631209070771       -0.13952135481794
H            5.53215369785365        2.98598760725004        1.82429626310755
H            3.48963204033716        3.39684700473102        3.04181653153042
H            3.85196728983904        4.14526805917368        5.35356646154039
H            4.62381107845816        2.54374514188413        7.05229979261765
H            5.03584906598588        0.20256982302636        6.43043357754044
H            2.67287622270278       -1.81452767747716        5.78999023410482
H            5.17177232095049       -4.49898780162140        7.97004775735434
H            7.09306974255020       -3.91008593413794        6.52946991301892
H            8.76101635805778       -2.97085150250127        4.81222174980635
H            9.96771678587813       -1.79341893221824        3.00357481009695
H            6.39146475245047        0.27055659382211        1.92412340218327
H            3.81501814892554       -3.45077985626893        3.32862864667820
H            2.44002865132862       -4.08442466454245        1.39431296125738
H            1.74726434572163       -2.39896418220737       -0.22401565188892
