71
 energy: -14.159523335226 gnorm: 0.000643240652 xtb: 6.5.0 (97a52f5)
C           -3.29204939518796       -2.42079315963525        0.23279367011027
C           -2.69160801526575       -1.06419118502465        0.19661730781057
C           -3.41359440531195        0.15475655803696        0.21682608260129
C           -4.84553182926469        0.23540963987635        0.25994458425806
C           -5.58062835491940        1.36801986188022        0.29538957229000
C           -7.02625212563847        1.43006000698368        0.34254333455409
C           -7.66081541091034        2.67702619069893        0.33237403367382
C           -9.03302528644427        2.77492264859141        0.37719450996443
C           -9.80792880427361        1.63327812469752        0.43442371914281
C           -9.20344355584121        0.39162789590644        0.44724989348085
C           -7.83125461552431        0.28687031223594        0.40229217989389
C           -2.45838155117835        1.22563908570164        0.18200409637339
C           -2.67010051833017        2.68516428673341        0.20970014386344
N           -1.26048345565958        0.65279225232145        0.12395954893291
C           -1.32007180906687       -0.75009153221537        0.11037018588383
C           -0.17608332009282       -1.57653697092358        0.03253882471841
C           -0.28321536459262       -3.05535795743580        0.00733657609973
C            0.01951725748325       -3.81554745469423        1.14179949569094
C           -0.07997062352343       -5.18750167084710        1.11618260821987
C           -0.48151754526608       -5.83263500268964       -0.03748066649836
C           -0.78495384330330       -5.10020252500246       -1.16879778015330
C           -0.68867657353645       -3.72778559694154       -1.15031765419438
C            1.07680674772332       -0.92378361095980       -0.01048070759668
C            2.38766467335657       -1.43201804783895       -0.11196936416852
C            2.77964888033120       -2.85956948264405       -0.21404242909402
C            3.28163946543655       -0.33355528403173       -0.06861663152883
C            4.71015253382630       -0.46279472403032       -0.10422934039013
C            5.60584182562251        0.54783419828530       -0.07489096287046
C            7.04499692850352        0.39551794636144       -0.11596755413126
C            7.85881297058762        1.53023567953771       -0.02746577376240
C            9.23054879994638        1.42352015480054       -0.06821515932111
C            9.82647350442109        0.18474316586947       -0.19962471831271
C            9.04325431432112       -0.94919509068851       -0.28949044768876
C            7.67056233920733       -0.84928350335762       -0.24860581378532
C            2.49429938859079        0.86345155238146        0.02046474448077
C            2.91964274901852        2.27504032622871        0.06864579315690
N            1.22463339471854        0.47134040284582        0.04720630034882
B            0.04813392909888        1.45410376884168        0.11203932601709
F            0.07410170908975        2.27142640624780       -1.01252606575579
F            0.13765385248002        2.19717753674209        1.28385398773135
H           -4.21075318364191       -2.43258167745451        0.81892168374784
H           -2.61483577226236       -3.14005867542246        0.69148704772866
H           -3.52717921358151       -2.76870734125927       -0.77335683522262
H           -5.36896359413404       -0.70161470697737        0.25164958977932
H           -5.07132704010899        2.31164698059810        0.28857258092698
H           -7.05981245084464        3.56908203014136        0.28739383055793
H           -9.50472899090404        3.74390429741775        0.36742301908891
H          -10.88225456890152        1.71138442708270        0.46984122900477
H           -9.80877610458798       -0.49888010709005        0.49416231407206
H           -7.37703007644447       -0.68727144652180        0.41900491146806
H           -3.18333946926885        2.99211771348879        1.12115044857746
H           -3.24441946519734        3.01708558950446       -0.65536739112472
H           -1.71041824106807        3.20174748840002        0.18422044374380
H            0.32939177453500       -3.30788397585414        2.03886847487723
H            0.15615818678100       -5.76014293780222        1.99807490981224
H           -0.55808003553043       -6.90748255116607       -0.05498689164706
H           -1.09710472560859       -5.60527612463140       -2.06815310941891
H           -0.92174852412991       -3.15297865928339       -2.02989126423657
H            2.01515597548301       -3.44197969847598       -0.72680660265974
H            2.93122752074472       -3.29259055986654        0.77498612812228
H            3.70194160507665       -2.97887169302207       -0.78215567927540
H            5.08974217969581       -1.46588887820238       -0.14578756666734
H            5.24246371700918        1.55501195497001       -0.01596570482141
H            7.39768267470017        2.49763022610235        0.07502058561740
H            9.84140387789788        2.30866095223301        0.00181984661562
H           10.90058211366312        0.10268794202037       -0.23316269729037
H            9.50929375460160       -1.91541301205102       -0.39385539753044
H            7.07624993102522       -1.74171110603629       -0.32560647164271
H            3.53048447900277        2.47350930688954        0.94946582707062
H            2.04684490942507        2.92614061626135        0.12191523487816
H            3.47918989593517        2.54923842315701       -0.82585194419691
