61
 energy: -11.994748876794 gnorm: 0.000573476195 xtb: 6.5.0 (97a52f5)
C            1.50762088904148        1.00327844864676        1.27157063971771
C            2.74137360139091        0.30635678328050        0.83014492126296
C            2.89631348858147       -1.07604224451423        0.52912325742825
C            1.94905088458179       -2.14135773298378        0.57040321501225
C            0.63877804065794       -2.04515328739690        0.89712723043028
C           -0.29552849036888       -3.14685940621562        0.93869478446916
C           -1.63535546985924       -2.90054401628549        1.26049021361831
C           -2.55232677383748       -3.92547224678283        1.31073158095625
C           -2.15896322555554       -5.22192272823561        1.04289858603587
C           -0.84203765361945       -5.48938441086632        0.72408130769727
C            0.08038152100897       -4.46885168946521        0.67166395527007
C            4.27388786178630       -1.26018928454535        0.14981781352060
C            4.95803776696562       -2.39868603913342       -0.23948052713798
C            6.30094169086277       -2.29070747803421       -0.56190090103777
C            7.28233983311477       -3.26902816617916       -0.96926244749730
C            7.09452791518933       -4.64930701264091       -1.28381524692366
C            5.90261371049178       -5.24264698818457       -1.53394606932104
C            5.70416626181500       -6.64099009255988       -1.83652805391903
C            4.42182694859706       -7.09918392046357       -2.16017433773693
C            4.19564463392566       -8.42521740960383       -2.45025585958579
C            5.23982208521903       -9.32869992074781       -2.42430235816197
C            6.51342885409671       -8.89975530339139       -2.10543234929055
C            6.74684490526192       -7.57464331869775       -1.81436061527358
C            8.52934464235053       -2.59278119054859       -1.02906343926838
C            9.82625063767406       -3.20572344872621       -1.40962308968069
C            8.32062094209180       -1.24623060089583       -0.71842046011725
C            9.31947539439393       -0.16230169740577       -0.67148151630273
N            6.99926244415649       -1.10369656512288       -0.45072245238028
B            6.34789810515332        0.22702333401456       -0.03464427818381
F            6.47347607904517        1.13996459584168       -1.07466409653778
F            6.95886561444846        0.68959448477318        1.12497577215728
N            4.85599624634832       -0.01522282190739        0.24744508368177
C            3.97796567170845        0.93658838971016        0.64695430348180
C            4.31115834436034        2.35870538690506        0.85304656337718
H            1.13219602423390        0.58176764915933        2.20447138023429
H            0.72697351591697        0.93590726384731        0.51324619942911
H            1.69662249617522        2.06224432238795        1.44838536436711
H            2.32957292884618       -3.11092112455524        0.31025048174008
H            0.23984574653049       -1.08119848436098        1.14507686958564
H           -1.94559798123200       -1.89111868546619        1.46981622663681
H           -3.57973730839394       -3.71635746169322        1.56016985006337
H           -2.87821181356662       -6.02353270176717        1.08325795871374
H           -0.53563232252821       -6.50172533977263        0.51664298694260
H            1.10182149973023       -4.69602552028647        0.42586064946441
H            4.46196579277038       -3.34799144188600       -0.23347473950195
H            7.98609965314489       -5.24269258526878       -1.36839112161435
H            5.02526999919794       -4.62600569817898       -1.56606239980509
H            3.60592255131757       -6.39730249340681       -2.18292059087751
H            3.20169557671697       -8.75977562954805       -2.69865167632589
H            5.06099959869473      -10.36690747873867       -2.65150933850373
H            7.32713585698000       -9.60617963420902       -2.08341834335491
H            7.74233212633194       -7.25796059027467       -1.56030904798774
H           10.04919911475365       -4.06762030374435       -0.77955750431175
H           10.64659459797802       -2.49564408507086       -1.30174583353754
H            9.80701830426370       -3.53964128486948       -2.44774872836697
H           10.07071974708805       -0.35714251714434        0.09400068220233
H            8.83622845616558        0.78601711184796       -0.43528116639596
H            9.82460321567883       -0.05349500342035       -1.63137927987609
H            5.36044092608229        2.53757386884362        0.61703938321665
H            4.14476964151285        2.65307539037650        1.88944404152210
H            3.70746865452408        2.99966005558928        0.21025656659477
