63
 energy: -12.024508830602 gnorm: 0.001317261072 xtb: 6.5.0 (97a52f5)
C            1.90517661824425       -0.96145758872122       -0.77623785090538
C            3.75877544565026        0.35302373316386        2.07143393858466
C            3.90393523686365        1.66573526211566        1.64679811869351
Br           3.05544659311520        2.80538541409301        0.41086248327323
C            4.99950765656827        1.16258144772923        2.80790586949243
C            5.67815895040451       -3.35060765175851        0.38315145899595
C            5.37907150057513       -2.06938554626317        0.16793937645601
C            5.75635431561477       -1.31051793409071       -0.95972094142756
C            6.52890946272609       -1.83561501859537       -2.01540292631569
C            6.89083277920323       -1.02754936509420       -3.04850246951159
N            6.56375086555644        0.26982244231175       -3.15399087423532
C            5.80683434314578        0.76118528238600       -2.16177513737372
C            5.39327775001893        0.04644494124510       -1.08246947477258
N            6.39575224696242        1.32966894450261        3.72235788357615
C            6.55442090839365        0.92101437331840        2.33144066019449
C            7.64317352610681        0.68256586468632        1.68865185587085
C            8.84354053118672        0.43104191652502        1.02598579110334
C           10.04848831009577        0.40611391717371        1.72473173918503
C           11.23488189739993        0.15583312335648        1.07154772537031
C           11.24186544247814       -0.07207468696805       -0.28970647575092
C           10.05752710122349       -0.04849300659934       -0.99735111192607
C            8.87123195038401        0.20176645923602       -0.34633930197252
C            7.15007140897715        2.58565992681199        6.04738934249310
C            7.35380154993559        3.16950253596525        7.29468465761242
C            8.65690724637568        3.48487437975109        7.93098841558122
C            6.10933533360543        3.35526291904971        7.86800597226496
Br           5.79461876923680        4.09694140531493        9.57336213303084
C            5.18055171723716        2.87144234662041        6.90595798424480
C            3.78066281901510        2.85177655302656        7.00614891649987
C            3.06174698247170        3.30261911007915        8.07439573507701
C            1.64174755432740        3.27595521890057        8.17807246885926
C            0.80213676602561        2.78166283227095        7.17407386163014
C           -0.55200734085410        2.79290232134857        7.36058848689890
N           -1.16427073070420        3.24747537943030        8.44934275077297
C           -0.36438425867991        3.71623778828623        9.40176704045027
C            0.99970660709672        3.75460554249993        9.32426432635422
N            5.86433258795436        2.38864883108670        5.77420993458722
B            4.98481295893643        1.82013447332141        4.50311889039098
F            4.27437563839487        2.99527496986455        4.17274490500187
F            4.19255149934012        0.83571426490475        5.11018603475217
H            0.87795625685187       -1.09446780353754       -0.51711702756776
H            2.42345920747690       -0.50725006856966        0.03935729114855
H            2.34721999024820       -1.90853680657379       -0.99610800803371
H            6.11232603696759       -4.24785038110435        0.12015879681757
H            4.81056394673514       -1.55406682196915        0.92852627849927
H            6.83334861448036       -2.86678489561733       -1.98911586567194
H            7.48666631719819       -1.43275230157389       -3.85184781358193
H            5.52756551353775        1.80029603708076       -2.24573518269685
H            4.80376509335487        0.50439667481834       -0.30990893621129
H           10.03774459057291        0.58311458806511        2.78665988905589
H           12.15982096400753        0.13779414965065        1.62459914913747
H           12.17076976019360       -0.26957773968604       -0.79921364077777
H           10.06042425002216       -0.22701670237879       -2.06009162532687
H            7.94543606997706        0.21678460513539       -0.89250331572691
H            9.44064726888802        3.57464476412946        7.17892286575619
H            8.94357443266802        2.69901718260710        8.62947695845556
H            8.60312823318015        4.42544247025051        8.47899990868727
H            3.25702515634850        2.44130159140769        6.16327480261025
H            3.60465079235791        3.70718980738103        8.90979201090733
H            1.21712396162966        2.39487714276154        6.26081846978059
H           -1.19528219891688        2.41026628977667        6.58172627953245
H           -0.85351910667619        4.08674506663847       10.29066625255430
H            1.58527429619244        4.14885001426046       10.13680026477023
