55
 energy: -11.087673972017 gnorm: 0.000877671208 xtb: 6.5.0 (97a52f5)
C            7.16622030344919       -0.05163401120160       -0.26943326314439
C            6.08105089862842       -0.75420103024146        0.45616394230921
C            4.77041607525601       -0.30027157329074        0.54618157464549
Br           4.10375052739918        1.29845899313050       -0.20592313760219
C            4.02029037242256       -1.23750522612601        1.27835441510088
C            2.58049235151734       -1.18851144395923        1.58873202259117
N            4.87167033332170       -2.22007168981642        1.61924481277537
C            6.15825192004927       -1.98180502087704        1.17017290801583
C            7.24008246199189       -2.88489520181337        1.37572611582829
C            8.56099685578262       -2.62398071581453        0.84051217421485
C            9.31836490184334       -3.36796014064154       -0.11690617228458
C            8.86249825586190       -4.53260177965887       -0.87783552053473
C            7.50434088787576       -4.83540410541525       -0.95822238600064
C            7.08722058983340       -5.92932568809220       -1.66286405858110
C            8.04432582274040       -6.69937193233867       -2.28038101265647
C            9.36176648230774       -6.33126207837712       -2.16350676040919
N            9.79377081760177       -5.27884194014401       -1.48941739458055
N           10.53174152789054       -2.83261350246061       -0.26797371662706
C           10.59178762125119       -1.75414275772064        0.56367948559727
C           11.65466272223575       -0.87832609966103        0.77123539276070
C           11.50297965138489        0.13547618421601        1.68511268155180
C           10.31292206709477        0.28025983439575        2.39573552203991
C            9.27617017893234       -0.58519195550747        2.18467127582841
N            9.41313891420725       -1.58436242589172        1.26322581545900
C            6.92994046384086       -4.07617170273325        2.09412016513478
C            7.75154397963546       -5.15020535301715        2.53418327785232
C            9.21620596441583       -5.29969532592840        2.36526799309396
C            6.92999464551950       -6.06979352961579        3.17544771459800
Br           7.49347555014166       -7.69913315426613        3.94588892483068
C            5.61170599960296       -5.57970431808797        3.16133946746219
C            4.41846254869685       -6.18886136616876        3.77497381794675
N            5.65625832865038       -4.39447403295295        2.52982176904827
B            4.43197150739046       -3.49264629435613        2.34965899290373
F            3.92258413491891       -3.15463101618689        3.59448420026783
F            3.48919922532230       -4.15641926735442        1.57763398910935
H            7.69480174784621        0.63471336581800        0.39165129046288
H            6.76303515911583        0.52858692130347       -1.09966767201639
H            7.88911987371467       -0.75688393735658       -0.67859793816656
H            1.98632803017617       -1.22086978726753        0.67555928097595
H            2.33043214515665       -0.27577804545969        2.12947973183833
H            2.29823082896398       -2.04036234362991        2.20826496682187
H            6.78468111382276       -4.20567622611614       -0.46861529128103
H            6.04145228428004       -6.18095410920029       -1.73172932183581
H            7.76444433783157       -7.57203292659220       -2.84737844980362
H           10.11946731222833       -6.92827846326292       -2.64833548586206
H           12.56886828207999       -1.01126575772534        0.22129373872001
H           12.31382357518062        0.82360403009766        1.85887856607987
H           10.21169968801814        1.07553270284737        3.11535755062607
H            8.34979712144767       -0.50431831814585        2.72420145771462
H            9.71879552648122       -4.33471149504293        2.43059501565905
H            9.45233574912820       -5.74480370947506        1.39896633140455
H            9.63172905520446       -5.94385044771472        3.14036881258789
H            4.44263611427815       -7.27508491944696        3.68393128751071
H            3.51412784000622       -5.82353810451162        3.28676266494876
H            4.35697932597804       -5.93329776111457        4.83303843507581
