67
 energy: -13.801623931301 gnorm: 0.000900868784 xtb: 6.5.0 (97a52f5)
C            4.96095534390572       -2.17946750595078        0.51384092294431
C            4.46950100697039       -2.80680359992834        1.76122290790428
C            3.13688762434082       -2.70226033121134        2.27191518226087
C            2.08705042884960       -2.01319685431787        1.70075490135021
C            0.87899090420333       -1.59655701718277        1.63420926713958
C           -0.42005137331572       -1.15834916087124        1.58921558612141
C           -1.48246960677856       -2.04432371341836        1.81184288543908
C           -2.78359699739368       -1.60276629549226        1.76949781137366
C           -3.05826129433137       -0.27323394006390        1.50618626226872
C           -2.02346155374146        0.61708292808016        1.28465511446482
C           -0.71914196810534        0.18466498336882        1.32459357941519
C            3.07418970432193       -3.44976434113228        3.49449240503407
C            1.90131423773467       -3.66183104498987        4.35856896564268
N            4.28561262933117       -3.96237515334577        3.67657873542283
C            5.19549308148380       -3.60238830899976        2.65034375166221
C            6.54663585487742       -4.02406035361432        2.62415394828149
C            7.46940929150416       -3.61795063317212        1.53482434672582
C            8.19676133428835       -2.42645189894814        1.61767593081567
C            9.05038354211444       -2.05253935433398        0.60575323714321
C            9.19866740312904       -2.85490980691201       -0.50880549852141
C            8.48950542356997       -4.03602109562183       -0.60943440168198
C            7.63419156339911       -4.41636582566861        0.39867234226481
C            6.96810829061932       -4.84933221688074        3.68299327526504
C            8.21593994047899       -5.43627100827813        3.95815538668085
C            9.45214708746514       -5.31743257223970        3.14940101235782
C            8.08868499083364       -6.18212392804622        5.15987660966685
C            9.08579448181048       -6.91932888318861        5.78242530154550
C            9.96414792685316       -7.57330175622159        6.33684438958496
C           10.96225637387372       -8.32203935804693        6.97511363175897
C           12.18658956927261       -7.74493329224502        7.30527670794508
C           13.16594787584106       -8.48341451470784        7.93353485374982
C           12.94146641538807       -9.80972229715227        8.24373739334858
C           11.73391451583630      -10.39721655716206        7.92387887892041
C           10.75245797175811       -9.66159108168688        7.29561413747598
C            6.75208700316858       -6.04520269245478        5.62164673976378
C            6.15777027185813       -6.63647855550357        6.83363514073405
N            6.12078498646525       -5.26239517475272        4.74219069456652
B            4.65050126076881       -4.84809628816547        4.87400373587401
F            4.48365331822923       -4.12259796753680        6.04645889243376
F            3.85210721319795       -5.98442433598370        4.86227944459876
H            5.76119595559163       -1.46985181701856        0.72418507991738
H            4.16081276896305       -1.63965311281991        0.00701681282755
H            5.34445728445917       -2.93182965293711       -0.17541999987772
H           -1.26415395347119       -3.07839457875189        2.01626375529315
H           -3.59188405331697       -2.29444946009345        1.94110408488230
H           -4.07942918147194        0.06930477118700        1.47354204993824
H           -2.24045905864121        1.65260120465638        1.08014237331070
H            0.08960907898704        0.87388579913445        1.15233448576223
H            1.34236110772230       -2.73561523855610        4.49291824393457
H            2.21265244615504       -4.01808402658154        5.34069253658626
H            1.23301206335412       -4.40614055636259        3.92550138674646
H            8.07799281639272       -1.80539160437594        2.48861518680300
H            9.60426362400104       -1.13140252017167        0.68293151247752
H            9.86756376638712       -2.55910934991996       -1.30025187033756
H            8.60657097791777       -4.66087609152566       -1.47953249152082
H            7.07943925439030       -5.33569436082903        0.32511504738781
H            9.73994182477634       -4.27299183922571        3.02898773715146
H            9.31084813544503       -5.74817248943344        2.15809170969355
H           10.28317343805232       -5.83943115375960        3.62424659433526
H           12.35756979629106       -6.71025293302366        7.06208238037862
H           14.10844540594616       -8.02460705367039        8.18344151632650
H           13.70827767544645      -10.38598931538100        8.73493544753378
H           11.55846416417758      -11.43253952156127        8.16589827589225
H            9.80941047192747      -10.11601647505173        7.04425735299608
H            6.67798664509578       -6.29441642114224        7.72835412144088
H            6.21078114535425       -7.72470997978599        6.80118989223452
H            5.10954032587434       -6.34990141789403        6.92022236850442
