56
 energy: -12.891998168619 gnorm: 0.000640816107 xtb: 6.5.0 (97a52f5)
C            1.04142335753746       -0.08638380549376        0.04298671152500
C           -0.14903659127695       -0.36919177529527        0.04545016058127
C           -1.55406641673048       -0.43400861330459        0.04938298229016
N           -2.16887765254812       -1.62041936163161        0.04829366183582
C           -3.50551746784372       -1.61115411662420        0.05197436396169
C           -4.21184970442275       -2.82683577684341        0.05107493459972
C           -5.00724044149985       -3.75676447894274        0.05261598262916
C           -6.05306948309148       -4.67743719162790        0.05298776670679
C           -5.98232329636342       -6.03631049842435        0.04924619052656
C           -7.25348484743413       -6.67315627406794        0.05127881927846
C           -8.28646217826130       -5.80317653191909        0.05642347717366
S           -7.72204857793329       -4.16986587586462        0.05897613040116
C           -4.27578760066994       -0.43929428597516        0.05676712981348
C           -5.68110348627556       -0.47363820610128        0.06097958007255
C           -6.89908158285716       -0.36795537326405        0.06618818226851
C           -8.26814487218284       -0.11292133349786        0.07194130740991
C           -9.27333524058756       -1.02931807180012        0.07413000392990
C          -10.57286326872692       -0.45654199462111        0.08035256538822
C          -10.55801875950943        0.89392767426507        0.08294698235443
S           -8.93869473377201        1.49839399107451        0.07766960096552
C           -3.62641613045009        0.79401303677766        0.05769889803795
C           -4.34281196031741        2.00255010743920        0.06188961779913
C           -4.93407024301691        3.07254271305984        0.06432147918229
C           -5.60145577024632        4.29505086644570        0.06690416569695
C           -6.95176484765915        4.45766518822902        0.07064600136888
C           -7.36729849960134        5.81521874573444        0.07221315752526
C           -6.33534612346912        6.68539315082902        0.06986492312285
S           -4.81795793735823        5.85773928306661        0.06562406421422
C           -2.23307833392190        0.79216761170830        0.05385366402133
C           -1.53976392892121        2.01438553844013        0.05401176557768
C           -1.00541961407469        3.11381960050753        0.05249479173643
C           -0.49458237494828        4.40899580475907        0.05259279997574
C           -1.24862563464784        5.54119950525110        0.05573842690577
C           -0.48505577833587        6.73789775632291        0.05447712352122
C            0.84650636029859        6.51783377882926        0.05043107207636
S            1.20304961536473        4.82683624951854        0.04805972263170
C            2.34856107395205        0.39680553043801        0.04036949403280
C            2.71286000816411        1.70780981549584        0.04121516841864
C            4.11988191692676        1.91414253053120        0.03808158333472
C            4.82918466009264        0.76464747664489        0.03494336501917
S            3.77587097171028       -0.60455286376368        0.03573101250194
H           -5.04587506067954       -6.57293710909993        0.04525755981088
H           -7.37657070700022       -7.74652662659832        0.04892177641077
H           -9.32614131099563       -6.07137746634831        0.05874356390830
H           -9.08294669287216       -2.09112088888196        0.07127362532721
H          -11.47882940811698       -1.04519792534902        0.08291932287704
H          -11.42635807776558        1.52549064033114        0.08765232662646
H           -7.63453645880327        3.62146164292209        0.07215644145481
H           -8.40478751865094        6.11668492536084        0.07499046562825
H           -6.42507239792749        7.75531927512170        0.07045108486717
H           -2.32822965207979        5.52485578589588        0.05871870041210
H           -0.92904591602549        7.72282736087388        0.05648578814908
H            1.60186970686310        7.28098877941111        0.04881125515611
H            1.99566102821870        2.51363245918401        0.04398746799782
H            4.57262570063956        2.89525657104687        0.03824619158037
H            5.90047217980202        0.69229304949532        0.03225559921177
