57
 energy: -11.776875382720 gnorm: 0.000469401073 xtb: 6.5.0 (97a52f5)
C            1.71392850310857        1.40542177875974       -1.47227351854952
C            2.92949970759824        1.13917323349133       -0.66501969562566
C            3.06575502031366        1.36086720208335        0.72288139750810
C            2.11457507588528        1.86412761568690        1.59644601334399
C            1.28644289054778        2.30834941532509        2.38544871587928
C            0.35320732088320        2.81716916747116        3.30047409187635
C           -0.72795483259592        2.04605757655474        3.72085816530833
C           -1.64171851897686        2.54763954688892        4.62256551700727
C           -1.49270599466066        3.82646091878140        5.12048856492862
C           -0.42693074292383        4.60408752713914        4.71446084100197
C            0.48849992890973        4.10528163476046        3.81299029019038
C            4.39341788904824        0.95495615849750        1.07467812964343
C            5.03953791395683        0.95753458616946        2.29750628718086
C            6.34049622221415        0.49087605586961        2.34772685698357
C            7.24413380792006        0.36838187808654        3.45213396867913
C            6.97711062887971        0.72865652288448        4.76362695055269
C            6.72560472319163        1.05637407165950        5.91904424590782
C            6.42627083249659        1.44122028699566        7.23410129926024
C            6.46766273666846        0.51684576075653        8.27525367594366
C            6.17097645416368        0.89743119407050        9.56628621009355
C            5.82814910656893        2.20611112850774        9.84082610281081
C            5.78232322887729        3.13504323752358        8.82079680297395
C            6.07841314323091        2.75743919137647        7.52880430708598
C            8.43826377937053       -0.18282350220331        2.93857761283657
C            9.66663264900825       -0.46691391905377        3.71964705864223
C            8.28531954307626       -0.37991516571947        1.55661007564086
C            9.26807209315448       -0.93368316145817        0.60749018800428
N            7.03274695889428        0.02121846972461        1.24150370964511
B            6.41626762190598       -0.02653283654441       -0.16777885014830
F            6.38790197633423       -1.34378062434195       -0.60661525306639
F            7.16489992073171        0.77653623684374       -1.01822893063587
N            4.97657677244325        0.51341714525084       -0.10364965816824
C            4.13306032416272        0.60873095802479       -1.15657429895255
C            4.44872955397229        0.21233755072059       -2.54099798567015
H            0.93583733546193        1.87143913117909       -0.86722691916960
H            1.31003418785323        0.47954836576560       -1.88260300920679
H            1.93812245944500        2.07528742930411       -2.30276823722459
H           -0.84001756703368        1.04888093844184        3.33073642521432
H           -2.47374806959706        1.94043066591047        4.93940545808777
H           -2.20773788905978        4.21755980750485        5.82563808225352
H           -0.31031383978880        5.60247199543507        5.10304311696296
H            1.32188025012436        4.70797325679427        3.49460228714106
H            4.54383548787994        1.30780623209896        3.18292073236167
H            6.73496727059876       -0.50295600348352        8.05699255456498
H            6.20656360881681        0.17193489577013       10.36237101816873
H            5.59591362775839        2.50240750578352       10.85066469638604
H            5.51437117082982        4.15669340228097        9.03478818529284
H            6.04395933015285        3.47873170066962        6.73024793926446
H            9.45156316511702       -0.49845568963754        4.78805552567940
H           10.41996974629634        0.30291448150218        3.55076007105845
H           10.09485498085083       -1.42882306593321        3.43672065467158
H           10.22333600720214       -0.41437958186309        0.68555549824059
H            8.90640821132885       -0.82654881989581       -0.41545860726743
H            9.43608723002633       -1.99405482901142        0.79613177518875
H            5.46985991453804       -0.16498016890154       -2.60204088698790
H            4.36047767165322        1.06061720528591       -3.21985983955952
H            3.77664946744762       -0.57436569900189       -2.88398541660899
