64
 energy: -10.937459747717 gnorm: 6.435369001442 xtb: 6.5.0 (97a52f5)
C            1.07484878211851       -0.18546028689654       -0.46365207706284
C            2.36943348516618       -0.14651439290296       -0.82044901055377
C            2.91433109465251       -0.29840829060673       -2.12917329532360
C            0.73175097244577       -3.24738342435165       -1.55290292332515
C            0.06368499539103       -3.54134752297768       -0.52227001519035
C           -0.90591908887557       -1.34371980320682        2.41807252055942
C           -0.78982628813937       -3.53591415970186       -1.91011021548743
C            2.74446912175398       -3.12259641608094       -4.37168582840380
N           -2.28153825047130       -3.63361257559474       -2.70190503859313
C           -1.11923006671368       -3.68286773963796       -3.55418774629218
C           -1.05571476655724       -3.77954535894823       -4.82214380363223
C           -4.48183216532047       -2.10225348829718       -3.11521923466698
C           -5.60828958061377       -1.31181795172925       -3.10571334297960
C           -5.51343428782565       -0.46084316448346       -2.00780570284388
C           -6.50827191573849        0.54589608170252       -1.56474939179626
C           -4.28670499733995       -0.80038939037045       -1.38607078433776
C           -3.72623678074714       -0.16672647588386       -0.17514714540979
N           -3.66306514472269       -1.81645172831416       -2.06582562110190
B           -2.22179654322964       -2.42127708461211       -1.55760138440110
F           -2.50250679030159       -2.77391526148062       -0.23187746139613
F           -1.44422429958951       -1.24467584684859       -1.68271973506531
C            4.28897191065441       -0.26976376778551       -2.05427929324720
C            5.25886190592705       -0.41124343852824       -3.03631785016477
C            6.58515435492289       -0.39138595671411       -2.64996464323877
C            7.77327814727774       -0.53387931978728       -3.39975489842796
C            8.85524511145133       -0.45918686164722       -2.51940731025817
C           10.28787312932224       -0.54518032944566       -2.89414819004021
C            8.35514958500692       -0.25361152765261       -1.21541915414226
C            9.11253552738092       -0.12477431509935        0.04184843604033
N            7.00777807699695       -0.22671648690249       -1.32209059911105
B            6.03491279841936       -0.04443096894802       -0.14872282683073
F            6.26156032156780        1.18641673325487        0.44725723869311
F            6.21113736330180       -1.08216284936922        0.75503649135698
N            4.59891898085854       -0.08720992221931       -0.68470181982722
C            3.51664772024522        0.00008578001057        0.08444382748130
C            3.50501466525469        0.14966289629900        1.54716944474310
H           -1.33519393331437        0.42063800298807       -3.74423268528975
H            0.31520703910507       -0.37260439910972       -1.19246513231356
H            0.77849983182324       -0.09897956036316        0.56022563652849
H            4.50617773080018       -2.92267964698894       -0.67212123251734
H           -1.32222753508931       -1.85407235359414        1.58269110477646
H           -0.49520205316228       -0.83015580365131        3.25413555921596
H            2.78928332473206       -2.27270977226142       -3.72605431870071
H            1.98400480636026       -2.97457530743932       -5.10581556555662
H            2.50962810507638       -3.98926550416608       -3.79196098454924
H           -1.00329781562243       -3.86027539070119       -5.88351400406980
H           -6.41487214028892       -1.35049113427990       -3.82463035478339
H           -7.24441618267363        0.73684504785654       -2.34611298605989
H           -6.02615349291631        1.49328816205077       -1.32220848564273
H           -7.04123224631779        0.19830432207429       -0.67922684210619
H           -4.34725117638164       -0.37290909766649        0.69634744054340
H           -3.64540386157723        0.91299556373514       -0.30122392586739
H           -2.72786023525472       -0.55795611830810        0.02051935760140
H            4.98296398194156       -0.54951820959653       -4.06424301961822
H            7.83249132658094       -0.67707415566032       -4.46406601134303
H           10.40619741944677       -0.97547335046974       -3.88878400035986
H           10.83739964806823       -1.17289347430073       -2.19216522795340
H           10.74744258467963        0.44356127472358       -2.89720818233223
H            9.90150299061120        0.62151019769561       -0.05069660625533
H            9.56674904444425       -1.07537273033920        0.32108733029425
H            8.44861667438209        0.18194097196878        0.85060929008406
H            4.51799036771028        0.31214181386866        1.91638219984027
H            3.11127860280345       -0.74682303371016        2.02626632304331
H            2.89322012038264        0.99996829591321        1.84882369714939
