68
 energy: -12.593293896255 gnorm: 0.000822923692 xtb: 6.5.0 (97a52f5)
C            4.82438222028864       -1.50166791058187        1.69491509714602
C            4.14593833476216       -2.23647638636982        0.59717589988308
C            2.80873651786718       -2.09954202893718        0.24831492133816
C            1.80734639155816       -1.17918872777531        0.88087526420965
C            0.97732124127086       -0.41609632824358       -0.11179373936371
C            1.58797520281035        0.39763839943575       -1.05303239177776
C            0.83611525057084        1.09457806073526       -1.97637736064013
C           -0.53884151186977        0.98783322041318       -1.96792988022149
C           -1.15978295677676        0.18409797917958       -1.03485548360502
C           -0.40659098511228       -0.51241815055430       -0.11224093809089
C            2.52393076080752       -3.01431313437520       -0.80117611448007
C            1.23895607672257       -3.24257575963567       -1.48863828261875
N            3.66667727461423       -3.64076643870320       -1.07499382395777
C            4.72456653576703       -3.21543529402423       -0.28041614674406
C            6.03116112094902       -3.70862935739561       -0.41313640984544
C            7.15313534914995       -3.14815747259080        0.38183316217457
C            6.22642941241764       -4.76636117256583       -1.31663778449007
C            7.36762846864601       -5.56828999185765       -1.62643711536888
C            8.74013401412808       -5.42830949466162       -1.08130202661904
C            6.97426839789506       -6.49732838484860       -2.59657857992136
C            7.78619583051474       -7.56317646933644       -3.21174713258985
C            8.61322437912972       -8.39819492068859       -2.49891657532670
S            9.36437246128886       -9.53229544418129       -3.53515818575861
C            8.49487326718829       -8.84471280202068       -4.90019901339811
N            8.59759260183358       -9.31069170906615       -6.17085460767274
C            7.77443257987563       -8.77195571903836       -7.25930945404100
C            6.89925865102943       -9.88246389271736       -7.84021564663945
O            7.67596441460806      -11.01314330090257       -8.22698622248182
C            8.43979413924709      -11.54936209077173       -7.14969431902829
C            9.37406545037610      -10.49962163020537       -6.54923303329762
N            7.71582683578934       -7.81951765571250       -4.55128397072531
C            5.60423316161273       -6.26034626895874       -2.91350535190966
C            4.75647699320644       -7.01327444609706       -3.85410564622396
N            5.20923829818824       -5.26109505279899       -2.13443191311810
B            3.77632190311670       -4.72317895020770       -2.15267929734487
F            2.89552419377244       -5.75654909315262       -1.85702268426899
F            3.50731693079009       -4.16593084206533       -3.39622014613418
H            5.35479214878143       -0.62907543445282        1.31271512304720
H            5.53437372488479       -2.14212056462767        2.21773304398353
H            4.10963895260596       -1.15641521534161        2.44132516720593
H            2.31868232974741       -0.45919444060466        1.52639342026748
H            1.15655263446559       -1.76196387155606        1.54064498780149
H            2.66179866030177        0.47339862037159       -1.05989375381339
H            1.32378812459551        1.72191727272433       -2.70447398454390
H           -1.12715404470856        1.53210396737835       -2.68860917072107
H           -2.23416024951060        0.09963254728769       -1.02627901940297
H           -0.89135683192975       -1.14025484878233        0.61553337304001
H            0.43478953495995       -3.40553268067106       -0.77127537603018
H            1.30393171614614       -4.12096688960559       -2.13075283474801
H            0.97577454539887       -2.38889573104199       -2.11307262850098
H            6.99470857760476       -2.09302191894361        0.59885200158171
H            8.09256944291914       -3.20158275977759       -0.16399978567593
H            7.27259581795537       -3.68287921969592        1.32447011532593
H            9.19540790103341       -4.49315697195643       -1.40742893876343
H            9.38906130237656       -6.23068397704119       -1.42930334043722
H            8.73546870309949       -5.45673157709988        0.00848576069412
H            8.75336324860972       -8.37008529492050       -1.43676369085892
H            8.43816146340874       -8.36297104327317       -8.02670314862604
H            7.17414166020163       -7.94095999961888       -6.87411557393135
H            6.34446399814553       -9.54381064802668       -8.72477256158610
H            6.16070116693925      -10.22187460254428       -7.10474787667506
H            8.99264771261204      -12.41638531466129       -7.53381044284503
H            7.73641861367547      -11.92123781465637       -6.39565455003379
H           10.13187731879789      -10.19891393075422       -7.27860439419099
H            9.90569469116739      -10.88331617591475       -5.67243479732324
H            5.30664798240405       -7.25902562809413       -4.76228858213476
H            3.88197800482100       -6.42454064160458       -4.13171588686196
H            4.40924194041450       -7.94208655120151       -3.40169772230371
