55
 energy: -10.099832925907 gnorm: 0.001976264261 xtb: 6.5.0 (97a52f5)
C            2.04487119023147        1.60293809568254       -2.84822154490472
C            4.17839417643546        2.83563552226664       -0.16377892260044
C            3.98711088127015        1.72126946482125        0.64286333804522
I            3.08433409524959       -0.14232990220553        0.81544965806775
C            4.94357246161618        2.91557454456447        1.30274211545965
C            7.50837017424639       -1.13035456855299        1.45796891796427
N            6.03967451824721        3.48699298583362        2.45283428325120
C            6.55957650977539        2.68585075626589        1.37673439739200
C            7.78502874563791        2.32724660812307        1.17129104705428
C            9.09834887037142        1.97650540121462        1.00851427249869
C           10.17979901528935        2.08864076970716        1.86876444570709
C           10.18942916207033        2.65437159689631        3.22095970521172
C            9.04712592458547        3.22731812386521        3.76998725388371
C            9.07969788196755        3.73740782410616        5.03748369085539
C           10.25721234805913        3.66200380759208        5.73617160083896
C           11.34294273730658        3.08245893692214        5.12625368690912
N           11.34064834941847        2.58591267789630        3.90234106253488
N           11.30573044632953        1.54552238616310        1.29562149833013
C           10.98231771279770        1.10173069772584        0.12737845823847
C           11.89450845726502        0.40693871496660       -0.81816993569995
C           11.93240575328936       -1.04713140314908       -0.79003588438584
C           12.00102500661719       -1.25051106523650       -2.13682781008558
C            8.96892291188833        0.98306953113276       -1.23355294499267
N            9.60212645311538        1.32622788170795       -0.14431228371507
C            6.02545893494526        5.20368831877406        4.58773960555123
C            5.82399593897610        5.98612232382576        5.71783991980351
C            6.86478467796642        6.68820039612910        6.51218031200400
C            4.45887490969151        5.95398811004960        5.99303348771609
I            3.49561745357406        6.88663360090133        7.57568360183019
C            3.88969732883996        5.15664746466837        4.98036342063500
C            2.44755068906927        4.86769745789940        4.83211169343621
N            4.85564212561861        4.68818153385719        4.12211203200886
B            4.42346069573011        3.80072053657466        2.80391286612609
F            3.64376213102257        4.76466263797077        2.13152343974931
F            3.66959019961669        2.77226056458672        3.38772192276470
H            2.07892104860104        0.53736594067529       -2.91181028751418
H            1.04202337677380        1.91789426106304       -2.66052880303572
H            2.67768209095405        1.93681320645131       -2.05553591086392
H            6.49768184978866       -0.78782791734030        1.49780964821332
H            7.93773452081503       -1.08571401338371        2.43427995736026
H            8.06742834916809       -0.50513466722519        0.79759603260024
H            8.13140543215230        3.27205872030817        3.20897173188309
H            8.20187134260210        4.19017683142086        5.46580570964670
H           10.32888776296635        4.04853354979763        6.73960386263244
H           12.27737810233691        3.01605174117430        5.66386452903758
H           12.75555997023141        0.96969827250575       -1.18914103519161
H           11.28685983869689       -0.38883003367064       -1.59445417591281
H           13.44033854495965        2.77871621972371       -4.99471150563222
H            8.08518464830127        0.97570887246980       -1.75937883264050
H            7.76034503788226        6.85330429764751        5.91315848139336
H            7.14236109514620        6.10289182069307        7.38836479071000
H            6.50363688124664        7.65915021471255        6.85105967496416
H            1.86759184774006        5.79089121329138        4.80922131481284
H            2.08745440505417        4.25342951976855        5.65781289041772
H            2.26237497774374        4.32903963379371        3.90216954289912
