84
 energy: -16.725560584922 gnorm: 0.000460984321 xtb: 6.5.0 (97a52f5)
C            1.46029301691002       -0.80434792278562        1.08125584110871
C            2.88984319391470       -0.78689954863840        0.67478510484241
C            3.59274874200113       -1.85968630054044        0.18220614260591
C            3.10788991572680       -3.20994802619413       -0.08611874498116
C            2.16586984175416       -3.83719582527804        0.73586937680137
C            1.74117611331320       -5.11606397488011        0.47659180098416
C            2.23967695576138       -5.82683930266095       -0.61506789819034
C            1.80093389215567       -7.18342649206355       -0.90506949644705
N            2.10650190195400       -7.84005364314931       -2.02137533554670
C            1.53848595903810       -9.05692659947438       -1.92333724142958
C            1.59152523994479      -10.05674693475078       -2.99927455849240
C            2.68413331025182      -10.08781511905401       -3.86103187486647
C            2.74608914099481      -11.00340444389141       -4.88735260524441
C            1.71364506859115      -11.89926676716612       -5.07807060985021
C            0.61518681069269      -11.87244074722907       -4.24299926719380
C            0.55097636099061      -10.95810766567373       -3.21617470468989
C            0.87510164318035       -9.17130331815259       -0.67855764680292
C            0.21988385373068      -10.33959010127062       -0.08070981074120
C            0.75851867291512      -11.61887984421522       -0.21519984215766
C            0.14765602343861      -12.70434235324395        0.37023387406752
C           -1.00706665463900      -12.53445066451959        1.10682437574214
C           -1.54790020834049      -11.27376836119690        1.25977991457494
C           -0.93978819084368      -10.18540490738293        0.67573906081211
N            1.03641785316036       -7.96777092932650       -0.06168065095662
C            3.18656023366828       -5.20979197084566       -1.43138269987150
C            3.61804738976311       -3.93439667661140       -1.16759167184038
S            5.28503496954894       -1.39363940317917       -0.08106851515419
C            4.88429266023807        0.37108142216457       -0.16972687685601
C            4.31145725982788        0.60823035835418       -1.57319699651383
C            3.76291890289210        0.37645200278803        0.87120723295097
C            3.85650508300252        1.07174100969619        2.05825351722057
C            5.10029618299071        1.62182808840523        2.49622188384122
C            6.17446235604718        1.63308002612546        1.67432774535145
C            7.57622195209246        1.84497710382245        1.99134535615627
C            8.16654039909727        2.20617939614766        3.19560858478081
C            9.53636601508142        2.32935992338505        3.26177295807099
C           10.31830796995242        2.09396909484321        2.14279380897495
C            9.73904916936332        1.72784713346944        0.94097702937700
C            8.36838057669759        1.59795697897033        0.86493761834823
C            7.51330983235007        1.18670442940726       -0.32072267520015
C            7.85476102115413       -0.22324849866345       -0.78700496783107
C            6.02466542116490        1.45117761783015        0.16664834828487
C            5.59754645144350        2.82787902846852       -0.38698948868460
C            5.06293217531866        1.92196578293199        3.97943910568615
F            5.52656778275988        3.15644264029782        4.22843558089889
F            5.75740748851474        0.99100120725613        4.65314114397764
C            3.54973234336397        1.83504644855280        4.36707296561506
F            3.01563748756049        3.06002648911979        4.34742968875830
F            3.40113495846342        1.24442272876761        5.55384766986065
C            2.90430533277865        0.96935569529864        3.23343986961382
F            1.69998169476768        1.46603748124799        2.91064721492711
F            2.81892480111775       -0.30654102481324        3.64425923867657
H            0.86903304461805       -1.44668896884264        0.42862685277863
H            1.03937192564765        0.20036016123402        1.03260956226273
H            1.35592600337354       -1.14916470932163        2.11006038701102
H            1.80277157445116       -3.32100199283573        1.60640644465923
H            1.01368320854832       -5.57975240342504        1.11803015783787
H            3.48192711360831       -9.38145705556719       -3.71079097949444
H            3.60081460863862      -11.01944838096817       -5.54347145441053
H            1.76281884083482      -12.61601471239435       -5.88132785349839
H           -0.19467126365072      -12.56667139671920       -4.39652947397017
H           -0.31378849476598      -10.92465111481083       -2.57710274478317
H            1.66730269624548      -11.74680629028116       -0.77727241561126
H            0.57340670851854      -13.68771861885880        0.25588033692190
H           -1.48392759938261      -13.38516335208914        1.56538570319132
H           -2.44728111372602      -11.14125326541753        1.83848541648042
H           -1.36079932933643       -9.20181494904952        0.79045604790222
H            0.72261390661154       -7.73391392237828        0.87969632093887
H            3.57970591156501       -5.75676643966159       -2.27036613770153
H            4.35794454655080       -3.47193079757465       -1.79743239459411
H            3.60452388214324       -0.17793021412165       -1.83905243676567
H            5.10305159391151        0.60639049245900       -2.32251717866031
H            3.77569146475245        1.55542784228623       -1.63196736904326
H            7.54600958718519        2.38710505520975        4.05486561875927
H           10.00318347506224        2.61094168047449        4.19144204126222
H           11.38917854132101        2.19429806809638        2.20920203373380
H           10.34295197697357        1.54138586804574        0.07027959743362
H            7.72448246232965        1.88537527079044       -1.14450651995214
H            7.72469177157830       -0.93403460020965        0.02859483729895
H            8.89309083902418       -0.29359626781426       -1.11310986005805
H            7.22261578107369       -0.53724401069460       -1.61778893142172
H            6.28400431321047        3.60394182608230       -0.05011008262170
H            4.60278883698716        3.09524411114270       -0.03310792027408
H            5.59485681842489        2.84210836668012       -1.47558547900031
