91
 energy: -18.056832128841 gnorm: 0.000856507707 xtb: 6.5.0 (97a52f5)
C           -3.27491870411557       -2.64012056602350       -0.02140779060769
C           -2.68809352750739       -1.27849899417634       -0.01244777990503
C           -3.40223168093245       -0.06496264510515        0.05618483987184
C           -4.86202047297450        0.09075924694808        0.14607956071964
C           -5.62729995879545       -0.72191939920411        0.99139612914936
C           -6.98551185308778       -0.57020329630911        1.08155274350023
C           -7.65847892652570        0.40437012436470        0.32834875343504
N           -9.04259491206859        0.55888604098445        0.41730665895816
C           -9.85134546337334       -0.25969617880933        1.32200054486775
C           -9.75894510240033        1.54958122510568       -0.38753105751010
C           -6.88894726659458        1.21894033110143       -0.51680316241049
C           -5.53054690531559        1.06685723939507       -0.60247929328383
C           -2.45019846147540        0.99686749742659        0.05790524051744
C           -2.69651514755279        2.44880219770848        0.13901502429149
N           -1.24910695719605        0.42202677628834       -0.00175046593412
C           -1.31606940782869       -0.95815322941477       -0.05424461592324
C           -0.16301619306362       -1.80354370275897       -0.08016549297922
C           -0.27415194817146       -3.24939231908271       -0.02943059436624
C           -0.05866239350680       -4.14655786674897        1.07407465523298
C            0.27904787812846       -3.77073867737668        2.45164672376121
C            0.19933467744731       -2.44111474989800        2.85925409457565
C            0.52823556145187       -2.09549957393670        4.14068803756935
C            0.92862338316810       -3.09587881955354        4.99301354377249
C            0.97319304471265       -4.38461668729947        4.51908439909242
N            0.66080073442326       -4.74735403710537        3.28666139769597
N           -0.21930586436366       -5.40582502623173        0.68400572530997
C           -0.53499086750059       -5.37069534838852       -0.63637203248516
C           -0.79794913571908       -6.44337058376651       -1.49491941243727
C           -1.09073494700463       -6.18030618503571       -2.80532402964411
C           -1.12347285569609       -4.86359530717080       -3.28078067764825
C           -0.86637059332344       -3.82366311447367       -2.44012798486575
N           -0.58141092780730       -4.07614871454728       -1.12094758415038
C            1.10182432023327       -1.13538300884020       -0.07074027651351
C            2.41189975913729       -1.65287023255949       -0.10851169018825
C            2.78328402496805       -3.08814768776718       -0.13669081116200
C            3.29855413228320       -0.55786999348798       -0.05774213340201
C            4.76901838550510       -0.61530117795007       -0.07501730861535
C            5.45278944638447       -1.42182164673555       -0.99303888379306
C            6.82128303021128       -1.47529028788031       -1.00629393667940
C            7.58567310291344       -0.72224716000414       -0.10136067878759
N            8.97988423111901       -0.77992384006918       -0.10964654231663
C            9.70838482410622       -1.65232492728690       -1.03230772605652
C            9.78845973787146        0.02279397442134        0.80939140530774
C            6.89771708703129        0.09183438185495        0.81204304300397
C            5.52929048569127        0.14435329877466        0.82211569741946
C            2.51422044201602        0.63109108618880        0.00920746338860
C            2.97725477827996        2.02925218209100        0.08372659174767
N            1.24040372971275        0.23930667234842       -0.00314153792247
B            0.06128145427328        1.21950252088529        0.05615262890133
F            0.12158894939132        2.07768868326771       -1.03524002825405
F            0.11454464352250        1.91515674193127        1.25876795860588
H           -4.31817710262564       -2.61834554483601       -0.33641596413779
H           -3.22507315688757       -3.09220163422535        0.96943591572930
H           -2.74286508052310       -3.29060332276149       -0.71380775499772
H           -5.12776051326264       -1.45799290509775        1.59698830201614
H           -7.54751871642127       -1.20653791144988        1.74136503817799
H           -9.50486318218420       -0.13719297571211        2.34642935721523
H           -9.77600519935502       -1.30887339939380        1.04283975056478
H          -10.89981092113879        0.02820119994371        1.28340948539937
H           -9.57863522889317        1.37082615862614       -1.44586632133322
H           -9.42135038035566        2.55211206014931       -0.13194157934549
H          -10.83169360107819        1.49737964523679       -0.21425448979373
H           -7.37591109778029        1.97502642317885       -1.10613580653270
H           -4.96133876106012        1.68899207267854       -1.27078110453754
H           -3.54259457805265        2.66882793768698        0.79037940627970
H           -2.90093166384448        2.86422494355571       -0.84770567624604
H           -1.81997899375409        2.95875656824077        0.53901625457249
H           -0.12257078082478       -1.68571068445040        2.16756261827344
H            0.47698707359879       -1.07038765743982        4.46996306802328
H            1.20127088336421       -2.87378826932984        6.01179407682889
H            1.28583946191965       -5.17624068470879        5.18327092492037
H           -0.76546264405751       -7.44837945337543       -1.11425294251401
H           -1.29641873302969       -6.99412092409439       -3.48110248716545
H           -1.35255303674456       -4.67477529986765       -4.31645959353447
H           -0.88151396913438       -2.80299166948168       -2.77738199602204
H            2.36910084556811       -3.61092427933238        0.72469612360056
H            3.86373945391491       -3.22364102177565       -0.10446241198145
H            2.40545540002465       -3.57028444277022       -1.03894269721101
H            4.88517562353762       -1.98448120227438       -1.71399673944006
H            7.32030582705388       -2.09840416129025       -1.72661493527263
H            9.51991370587948       -1.34799915788080       -2.06007749878160
H            9.38831747534476       -2.68415205759771       -0.90085911421079
H           10.78067040922917       -1.60684521356842       -0.85431381316650
H            9.58310894547908       -0.26831940087562        1.83786753624253
H            9.55759775295785        1.07889351146480        0.68400291700514
H           10.85137697063275       -0.11422361508306        0.62213847651307
H            7.45552317201235        0.67919579471253        1.51912301400325
H            5.01966429803051        0.76123743021914        1.54164519383598
H            3.89575513693460        2.17091114558024       -0.48629860361523
H            3.16203313108803        2.32199693905130        1.11728623144511
H            2.21999040434412        2.70030982222723       -0.32185149369045
