73
 energy: -14.638042570519 gnorm: 0.000782277197 xtb: 6.5.0 (97a52f5)
C           -3.32696067409170       -2.66352290869376        0.17204076272970
C           -2.69915032009790       -1.32549006739737        0.05049874475137
C           -3.38258159734986       -0.08834737535176        0.05586699389330
C           -4.83302831703922        0.11461525266960        0.14988782287647
C           -5.62730174604842       -0.66566776994480        1.00266553183364
C           -6.97923358594420       -0.47394618470530        1.08588797866081
C           -7.62298871092599        0.51262696794488        0.31849120679403
N           -8.99650129155284        0.70510184112772        0.39718010876962
C           -9.83601099580840       -0.08684577102056        1.29813056336297
C           -9.68275582508050        1.70571538698176       -0.42161677226742
C           -6.82450012532685        1.29790944706447       -0.53135950052215
C           -5.47270301799075        1.10448565942040       -0.61005257484459
C           -2.40197371533065        0.94593134409672       -0.02661040906589
C           -2.60174523530112        2.40740392458910       -0.00841291332730
N           -1.21983729717313        0.33583596873563       -0.07693929519996
C           -1.32224841971835       -1.04680849248811       -0.04940738923703
C           -0.18558851765574       -1.91446076623807       -0.06841447119774
C           -0.31640294972173       -3.35577835522981       -0.00469792461360
C            0.09381307037423       -4.26451212103665        1.02795950108463
C            0.63311977267753       -3.90164399229946        2.34243732735081
C            0.52548520631737       -2.59332662368547        2.80909535478306
C            1.03885189885850       -2.25701448122133        4.03074446508983
C            1.64911658802105       -3.24523506421674        4.76504659629280
C            1.70783874964966       -4.51352017548865        4.24070262794849
N            1.21964164729269       -4.86709231834021        3.06389928000954
N           -0.10351399182920       -5.52256579389742        0.64477090820815
C           -0.62561847235263       -5.47323672477788       -0.61019957002233
C           -0.98980142909996       -6.53536880242729       -1.44097238367682
C           -1.47683892578892       -6.25595673643895       -2.69067645471293
C           -1.60128255565986       -4.93455491904562       -3.12974140534812
C           -1.24330209705696       -3.90296992025541       -2.31321251448087
N           -0.77189544691509       -4.17256266451234       -1.05448067602071
C            1.08936585832343       -1.27370335896452       -0.11934696145052
C            2.40131456658631       -1.81297376756378       -0.21019947364206
C            2.78491738729293       -3.24376715890648       -0.27480002641198
C            3.28486166137102       -0.74377527866077       -0.21818490914434
C            2.55082817326375        0.45299886071276       -0.15380687236747
C            3.05905566152542        1.83797518106867       -0.16371932298800
N            1.25939636418365        0.09560263871417       -0.10735944933606
B            0.10735467152325        1.10620399450301       -0.06146723941444
F            0.17300739078615        1.92959128822599       -1.17823812112471
F            0.19401849158020        1.83537784342750        1.11849130856814
H           -4.34503576162581       -2.65708526301329       -0.21766324137042
H           -3.35883772271321       -2.98511378248051        1.21326945128723
H           -2.77416082728174       -3.41357601473201       -0.38909655202210
H           -5.15308825916500       -1.40530751332222        1.62339725131882
H           -7.56131853735121       -1.08649792562413        1.75064560998723
H           -9.49275618676324        0.02846972479723        2.32451659371493
H           -9.78905091641900       -1.13856033388712        1.02110644779533
H          -10.87549876876111        0.23166098364824        1.25150163325285
H           -9.48759918128710        1.52225945366673       -1.47627767645373
H           -9.33171888635882        2.70204660474880       -0.16120244241039
H          -10.75871882119172        1.67207763501604       -0.26697222207790
H           -7.28613916142699        2.06273909076335       -1.12957730945548
H           -4.88510210261801        1.69954589970425       -1.28669570527104
H           -3.43187235484384        2.68326545070082        0.64236042814404
H           -2.80369136830839        2.78528473261793       -1.01064883369250
H           -1.70429899616161        2.90568439187942        0.35904486906249
H            0.03662428258709       -1.84842900513721        2.20908722668770
H            0.96836488846845       -1.24870623705325        4.40514225406060
H            2.07015718271693       -3.02948625021894        5.73330863059980
H            2.18312610009657       -5.29554995157569        4.81324993637024
H           -0.87906128690119       -7.54595120662466       -1.09120177152771
H           -1.76313677317657       -7.06259162869844       -3.34530912627879
H           -1.98085174548772       -4.73206784626093       -4.11741942866528
H           -1.32387336422239       -2.87714349620841       -2.62451120197652
H            2.08892837200982       -3.80835831181684       -0.89547260823216
H            2.79121258382106       -3.68758484004247        0.72061213794957
H            3.78130496657473       -3.36202145344269       -0.70121548585516
H            4.35741528155126       -0.81714010664421       -0.27600828196118
H            4.14437319856170        1.86317790219109       -0.06416827036892
H            2.62590635190673        2.40691034109454        0.65916337359575
H            2.78737591500246        2.33727094948816       -1.09391613877885
