65
 energy: -13.382344230725 gnorm: 0.000679814164 xtb: 6.5.0 (97a52f5)
C           -3.33198921134442       -2.65177710781115        0.20604861233556
C           -2.70313755057307       -1.31408289844738        0.08888021688403
C           -3.38429704540311       -0.07873323497911        0.13434180091314
C           -4.83875028667157        0.11803635506547        0.26673343092307
C           -5.57885776163914       -0.59131155885389        1.21506136258145
C           -6.93682959387704       -0.40187629653845        1.33499536911677
C           -7.58689645218708        0.49879821710138        0.51465150558145
C           -6.87241921319675        1.21275416514484       -0.42683701166858
C           -5.51436748350343        1.02693302700767       -0.55035927567624
C           -2.41239774225511        0.95819076412591        0.05456052144110
C           -2.62594980042147        2.41694983550711        0.08475550593322
N           -1.22746071037055        0.35276184193851       -0.03589440697167
C           -1.32767877019290       -1.03335029072263       -0.03080615168451
C           -0.19330539441249       -1.89954066415286       -0.07533602724465
C           -0.32666504638304       -3.34283070567447       -0.01309212914532
C            0.07644503032418       -4.25138921792841        1.01778168010105
C            0.61800581785791       -3.89580546929810        2.33099927764140
C            0.54686231169830       -2.58207170156528        2.79129108416249
C            1.06454625308680       -2.25487775731228        4.01302102664741
C            1.64263275718519       -3.25711358614444        4.75558248216917
C            1.66629527964959       -4.52895626776437        4.23868225300346
N            1.17288475809487       -4.87447276888212        3.06121907652301
N           -0.12683272867362       -5.51188183560449        0.63280718241684
C           -0.64838283275329       -5.45918340894378       -0.62597527687252
C           -1.01736997146942       -6.51603074842791       -1.45582128305577
C           -1.50265623651244       -6.23109742414199       -2.70827675431768
C           -1.61801919216015       -4.91140496488985       -3.14346786666095
C           -1.25370531664771       -3.88189359216259       -2.32198888783906
N           -0.78677946285429       -4.15764244782071       -1.06709383378308
C            1.07817360767964       -1.25930011748342       -0.13686066968561
C            2.38946014044875       -1.79599665967178       -0.23942905072781
C            2.77297527775686       -3.22646187457102       -0.30623863052567
C            3.27260454611550       -0.72439546555684       -0.25071609433045
C            2.53918159490769        0.47200286344163       -0.17413671286901
C            3.04456730507640        1.85774650832014       -0.18410536760465
N            1.24777481800071        0.11444966350705       -0.11786238737868
B            0.09737818595113        1.12504346769505       -0.05310664891241
F            0.13825008919026        1.94178678038248       -1.17543795695701
F            0.20886590876964        1.86131414704689        1.11973764990211
H           -4.37437539506782       -2.62377566445242       -0.11155707381079
H           -3.29738852554089       -3.00786175856299        1.23582381470673
H           -2.82321707327416       -3.38419452363436       -0.41719633013046
H           -5.06882253589951       -1.27601161687869        1.87002046904679
H           -7.49357025965521       -0.95562312107472        2.07313642563764
H           -8.65030993648956        0.64545897023739        0.60932935185372
H           -7.37993350793832        1.91515667510437       -1.06756133582411
H           -4.96016183353060        1.57075827007299       -1.29533931257602
H           -3.47172691968055        2.67808957516213        0.72108883627181
H           -2.81401614413298        2.80230168318956       -0.91728585866989
H           -1.74052811956243        2.91987505261797        0.47408057841794
H            0.08287182296322       -1.82593529956279        2.18589527264958
H            1.02254062307851       -1.24270471966642        4.38112748433840
H            2.06576821050632       -3.04820862726635        5.72440755379534
H            2.11527938582084       -5.32194546719651        4.81738542638610
H           -0.91308465487733       -7.52784085812989       -1.10759708612917
H           -1.79330291148131       -7.03523642959191       -3.36407065466409
H           -1.99553506649879       -4.70356677280256       -4.13081690279403
H           -1.32703596344248       -2.85477255758571       -2.63075342679107
H            2.07456827880528       -3.78984319752173       -0.92524731956322
H            2.78179860544853       -3.67202207260899        0.68838887727979
H            3.76813844058263       -3.34480957936566       -0.73538100484705
H            4.34466710564540       -0.79676343820697       -0.31691604964419
H            4.12767668720735        1.88595071166220       -0.06358457222351
H            2.59390164761441        2.43130610378171        0.62622199010507
H            2.78980216108643        2.35034909134436       -1.12268676719569
