63
 energy: -12.599679099095 gnorm: 0.000531987005 xtb: 6.5.0 (97a52f5)
C           -3.30682104978901       -2.62407409614904       -0.05801280370027
C           -2.70548125516013       -1.27169010289025        0.03325832725265
C           -3.41625276165267       -0.05003348647401        0.08361100985768
C           -4.87880495827964        0.10622410563612        0.11891860361385
C           -5.67023673548789       -0.70982539911997        0.93328487508020
C           -7.03760894634095       -0.55940917897306        0.96821167389518
C           -7.64980775361696        0.40716682467611        0.19423223394230
C           -6.88677697589799        1.22565941746867       -0.61579783324362
C           -5.51898054026533        1.07960257044124       -0.65412884354228
C           -2.46310857412704        1.01208194890575        0.10599048795700
C           -2.71192734728451        2.46466476530097        0.15427350126951
N           -1.26006675012572        0.43870137625247        0.07788127527766
C           -1.32790872572008       -0.96320618546746        0.04579204742175
C           -0.19027735189885       -1.79832614922887        0.01758439395816
C           -0.30876743485936       -3.27647916172473       -0.00309691961325
C           -0.63080569425026       -3.98652775621090        1.15770204717463
C           -0.73932660425040       -5.35787632153800        1.13578882229904
C           -0.53075914111347       -6.05137157584015       -0.04055853735981
C           -0.21212530416519       -5.36833668974162       -1.19824031508172
C           -0.10106993655632       -3.99707041998711       -1.18331024845080
C            1.06624336161429       -1.15518947124847        0.01459912793265
C            2.37702767765311       -1.67953434372502        0.02213684824614
C            2.75507617478173       -3.11248727736006        0.07593907949432
C            3.27375151702859       -0.58593597645607        0.01680053713725
C            4.74287805763099       -0.66333899003998        0.00248791198139
C            5.40814089954609       -1.56864111135904       -0.83015917198873
C            6.78244922967497       -1.63665881519376       -0.84494586151653
C            7.52734673546067       -0.80482989219783       -0.03168457355486
C            6.89052112895222        0.09765237368158        0.79789112156236
C            5.51648479072992        0.17016147521726        0.81596293539670
C            2.50213759721095        0.61469855513686        0.02560609815460
C            2.97910248266618        2.00991098634529        0.03065764884538
N            1.22291912008501        0.23991085780540        0.02920637545965
B            0.05334274163595        1.23229065082816        0.07099858178718
F            0.09351014810476        2.03673849957705       -1.06161118430820
F            0.13812119285229        1.98631745081318        1.23547454847481
H           -4.33516201704066       -2.57552277377849       -0.41639470716385
H           -3.30879079370392       -3.11710162919749        0.91434739667890
H           -2.75196077360040       -3.25170299823047       -0.75514485243618
H           -5.19263431226664       -1.44660602429428        1.55545813402239
H           -7.63226470566811       -1.19502801825106        1.60382307051688
H           -8.72083872918486        0.52342699626906        0.22293980289409
H           -7.36465847359728        1.97830804261905       -1.22140832563731
H           -4.92870569960606        1.70280190506858       -1.30272626696552
H           -3.58222275597670        2.69482534207589        0.76927656152786
H           -2.87826640248255        2.86373920866441       -0.84631636410482
H           -1.85135965539948        2.98177361014531        0.57902198657844
H           -0.78943335928067       -3.44166147421787        2.07227816857397
H           -0.98743374299996       -5.89219311008543        2.03819190523104
H           -0.61740223538223       -7.12546534465976       -0.05525244628697
H           -0.05069093540907       -5.91075182914649       -2.11537641789633
H            0.14425307917289       -3.46003332295000       -2.08326431558961
H            2.09937625371445       -3.66517808634185        0.74862094509641
H            3.77365702877250       -3.23752053261812        0.44389917333984
H            2.69033729513491       -3.56982797199664       -0.91167797479880
H            4.83019675039588       -2.20035974554945       -1.48206891572476
H            7.27937540128436       -2.33765216686918       -1.49555165308197
H            8.60357903210749       -0.85903739694350       -0.04576034627544
H            7.47152998177514        0.74436846403258        1.43494050553276
H            5.02170472422978        0.85827099511645        1.47869607972895
H            3.89460404135341        2.11625243676480       -0.55172171679944
H            3.17332551162821        2.34982144463506        1.04793509563608
H            2.22544647724513        2.66852452258199       -0.40122834371183
