58
 energy: -11.347452889963 gnorm: 0.000675933905 xtb: 6.5.0 (97a52f5)
C           -3.34193013976911       -2.63271807177923        0.21940043087427
C           -2.72688427856111       -1.28923768353973        0.09520046993217
C           -3.42533070954190       -0.06089918274645        0.00934455406435
C           -4.86152949962865        0.11854364510078       -0.01315463077917
C           -5.53444834251885        1.25845168842555       -0.38798181991135
C           -6.94294693786946        1.15860937943419       -0.30690744159368
C           -7.37492208178743       -0.05040527434663        0.12703866561321
S           -6.04117485962612       -1.09373850250725        0.43721984268286
C           -2.44674261534936        0.98406529132515       -0.03394796008528
C           -2.63476214053603        2.44716359538613       -0.05411317697116
N           -1.26016096518806        0.38709445028686       -0.00746940216005
C           -1.34452997631273       -1.00502401545078        0.03640641206889
C           -0.20252000663808       -1.85446232457336        0.03995476354387
C           -0.32618940960550       -3.32340496686744        0.02472261152234
C           -0.90303948323305       -3.99492406017814       -1.07344970281980
C           -1.01740541755296       -5.35320261703954       -1.09210977451312
C           -0.56185761450072       -6.13238540672110       -0.00706665781919
O           -0.66208284608667       -7.48854500186789        0.00521576290323
C            0.01424151503870       -5.46239894925890        1.09274202852459
C            0.12864150365207       -4.10457970971427        1.10718305816206
C            1.06501240068841       -1.20720342264106        0.05731215736525
C            2.38116169358557       -1.71606287460968       -0.00717074091692
C            2.76426662043727       -3.14122568859451       -0.15091836172977
C            3.27373279969680       -0.62176808012355        0.09396174906648
C            4.71938939541759       -0.68535692526433        0.12794209740616
C            5.57233914501081        0.32664068538137        0.50370922614122
C            6.94425676032832       -0.01096153099342        0.43820705593821
C            7.16952460252075       -1.27856609063965        0.01519384177207
S            5.68151179145490       -2.08215869907126       -0.30573795365039
C            2.48175280690309        0.57044785580782        0.15052001127955
C            2.90857809566998        1.98171202263416        0.20071650186110
N            1.21260233625955        0.17882401871228        0.11974473898416
B            0.05087904318824        1.17500628555313        0.06542147019338
F            0.17418478541398        1.96150174430345       -1.07276881630340
F            0.05741849298137        1.94758718772794        1.21966969225106
H           -4.21689536856708       -2.60313259269879        0.86718942406226
H           -2.64990968527105       -3.34752178155824        0.66208871029947
H           -3.65277423081318       -3.01046040050879       -0.75475090026930
H           -5.04249927768117        2.14806942421631       -0.74466557109884
H           -7.60826665112325        1.96950685350494       -0.56661817192992
H           -8.40060840076886       -0.33646457051338        0.26458185683463
H           -3.37387517329142        2.76098625751106        0.68297579301074
H           -2.94702637566058        2.78807511875531       -1.04106432549735
H           -1.69602430439041        2.94778321933567        0.18376903366879
H           -1.24516584176940       -3.41055721352950       -1.90998608031639
H           -1.45747203832426       -5.84621686952420       -1.93992393021932
H           -1.07948627332982       -7.80518789582580       -0.81967631298088
H            0.36094906087616       -6.05262726647556        1.92184074940040
H            0.56202384675544       -3.60497581496681        1.95619909652704
H            1.96446511611547       -3.72463705636383       -0.60443637615771
H            3.00538560058855       -3.58038175416268        0.81727553709570
H            3.63380631292859       -3.24805098907084       -0.79795045519551
H            5.23597927286818        1.29037530244245        0.84795591440760
H            7.73438257193902        0.67756148611360        0.70144778196271
H            8.13351739079054       -1.73499605927771       -0.10800562820343
H            3.68635718707680        2.18566178959855       -0.53515560409544
H            3.27596611618686        2.24468135302206        1.19252537866709
H            2.06425468092228        2.63517068842442       -0.01954662286909
