75
 energy: -15.049464994430 gnorm: 0.000937853674 xtb: 6.5.0 (97a52f5)
C           -3.41405213863767       -2.59722499949082        0.28667747635104
C           -2.75687273668524       -1.28192683721072        0.08820941103116
C           -3.42559230785543       -0.03018922229332        0.02771677643902
C           -4.85134846484357        0.16925101471990        0.00419496239218
C           -5.53252955318402        1.34075266503711        0.25608080672115
C           -6.93422103488009        1.23105447631735        0.14666517213828
C           -7.35834361789451       -0.01312686190948       -0.19161887168764
S           -6.02144543355287       -1.07417621636890       -0.37555655885938
C           -2.41960723675494        0.99116591003291       -0.01177351948524
C           -2.56358250158636        2.45851562828586       -0.04592039903678
N           -1.25377889223991        0.36102004259857        0.00563836544590
C           -1.37408411703707       -1.03616812136144        0.02374785386774
C           -0.24987540610133       -1.91448274841450        0.02724294970508
C           -0.40418813736291       -3.37052846686575       -0.01309971040184
C            0.13611522392511       -4.19442954341824        1.00948997266789
C           -0.01129393457669       -5.53885147440051        0.98660559369808
C           -0.72385252708924       -6.20060284681952       -0.08071685613067
O           -0.82517818626006       -7.50616570588448       -0.01421109924157
S           -1.64279830186068       -8.13016030243105       -1.24095164802096
O           -3.07430410107987       -7.68103648366430       -1.20288963758795
O           -0.89157405744800       -7.95063069295512       -2.52771695422203
C           -1.61124295243033       -9.89554935540919       -0.85256296746687
C           -0.65902049208621      -10.32107397943489        0.04331891654829
C           -0.57487978819927      -11.65078723747732        0.39861201368763
C           -1.45450442447500      -12.56596061034912       -0.14492794246479
N           -1.37664207519688      -13.97968372136585        0.22833487501074
O           -0.52662534195635      -14.32875193862803        1.05789094461147
O           -2.16431205654852      -14.77572128635384       -0.29983521759543
C           -2.40954083385887      -12.13980171574917       -1.04360459159530
C           -2.49106304592265      -10.80975314574363       -1.40711657214672
N           -3.52717426067703      -10.42622577465998       -2.37601039084293
O           -4.71220520913578      -10.62450771129795       -2.07723581399495
O           -3.17989801435964       -9.94812564542426       -3.46364127759487
C           -1.25768914520849       -5.34669650671933       -1.11832598098833
C           -1.10269405398449       -4.00409665953356       -1.07441881669464
C            1.03273486621568       -1.29123263457761        0.07344585066310
C            2.33439225128332       -1.81530395701716       -0.01229582804278
C            2.70459113468502       -3.22602487792966       -0.28499062231443
C            3.24841607267361       -0.73464853926966        0.10778819564028
C            4.68439591509129       -0.83676960369171        0.12617297053844
C            5.59369680444239        0.17971487190382       -0.07318846426556
C            6.94213370700187       -0.22361908436616        0.01395731180882
C            7.09899040925553       -1.54479005670890        0.28275303630700
S            5.57114953838568       -2.31395526304147        0.42851659725500
C            2.47664524336992        0.46980646685841        0.20824684569395
C            2.92244063091062        1.87129725441067        0.31725954831530
N            1.20518309625031        0.09736507473199        0.16705437635911
B            0.06929042687097        1.11512403333285        0.10610133902992
F            0.23103050294889        1.90960766180511       -1.01608628740376
F            0.07161020755211        1.87641427243869        1.26237987549572
H           -4.29596638564900       -2.49611232113499        0.91955017034929
H           -2.74800703535264       -3.30262808264344        0.78242190884420
H           -3.72805226041316       -3.02507134193455       -0.66551847147018
H           -5.04974094362875        2.25991113908239        0.54489295982006
H           -7.60563328324710        2.06064123852495        0.31912656042854
H           -8.38122605918582       -0.31047059829818       -0.32835348090233
H           -2.89334493442767        2.84105200284096        0.92002505193397
H           -3.27003898490978        2.76773557346199       -0.81639473504426
H           -1.60231283514479        2.92198644526655       -0.27171434583965
H            0.64880836195464       -3.72088714410246        1.82870040614489
H            0.39165221649843       -6.15217150689163        1.77248743511439
H            0.01665968693226       -9.59832127175928        0.47261136104742
H            0.16640338818849      -11.99178210548394        1.10168349375945
H           -3.10024622869357      -12.85251156724993       -1.46053099841660
H           -1.78378406987219       -5.80494899102275       -1.93652756246526
H           -1.49277300953310       -3.38928909172952       -1.86699887272028
H            1.90616942548205       -3.75142114608675       -0.80785983802341
H            2.92460400796335       -3.75873006431844        0.64030851361119
H            3.58737600994062       -3.27639684818547       -0.92272514653870
H            5.31166608050881        1.19261863330175       -0.30940194443551
H            7.77088944740954        0.45682348790740       -0.12324223694568
H            8.03804269029219       -2.05452383268194        0.39105572343787
H            3.31783701584205        2.22988210139145       -0.63314051768726
H            3.68288477311889        1.98437923122952        1.09003461538523
H            2.08023127605211        2.51069651627882        0.58465394128047
