29
 energy: -6.495882220750 gnorm: 0.000400448419 xtb: 6.5.0 (97a52f5)
C            0.91257054092041       -0.02098481961034        0.01421925175926
C           -0.30169117948568        0.00175115264849        0.14598508912188
C           -1.69971058943452        0.02609324032348        0.31622685061806
N           -2.38306956352227       -0.96530207165078        0.88114069449400
C           -3.65504041325535       -0.58301785378135        0.86955092461087
C           -3.76799044034211        0.67943244222375        0.28149480838390
C           -4.98741160018301        1.46259236779286        0.07397003537906
C           -6.22900885043781        1.03700494304817        0.53808920620737
C           -7.35414045873937        1.80363307221541        0.32957428698522
C           -7.25947202578246        3.00472045640741       -0.34380288643393
C           -6.03503152319381        3.43907897988509       -0.80933720241968
C           -4.90850060333012        2.67457342272943       -0.60133315484301
O           -2.50872337644200        1.06279093088141       -0.07302649577736
C            2.31452110546168       -0.05241392617047       -0.12277066215994
C            3.05994202689859        1.10970803951026       -0.20160129246732
C            4.42088170196661        1.00227578112419       -0.33080178789416
C            4.98816894985100       -0.25034867514881       -0.37621079494993
N            4.31147848873756       -1.38378898998908       -0.30371176979079
C            3.00239455306275       -1.25697361213978       -0.17908085873371
H           -4.46426984186018       -1.18367975287612        1.25576103764466
H           -6.30631888030209        0.10346433931220        1.06679200206994
H           -8.31016155356945        1.46569646822477        0.69460482883779
H           -8.14114666635203        3.60294955899529       -0.50544578528998
H           -5.95995868459877        4.37643481803591       -1.33569013499907
H           -3.94849897935198        3.00442818820845       -0.95998373807987
H            2.57259708722507        2.06897768979896       -0.16124599195666
H            5.03533187856356        1.88516525210555       -0.39546116130682
H            6.05969773766155       -0.33979452173863       -0.47828522181258
H            2.43304115986987       -2.17139692037463       -0.11648007719981
