47
 energy: -9.021590187926 gnorm: 0.000674758883 xtb: 6.5.0 (97a52f5)
C            1.41533924841583       -0.68017341891909        0.66488711563001
C            2.71695190644299       -0.35531052840555        0.03229312143924
C            2.94582250249136       -0.02659117124678       -1.32850950618527
C            2.00830778030587        0.09831496610963       -2.40351010358827
C            0.64383243723279       -0.10180585177813       -2.39013155564545
C            0.02072626842261        0.12071207405943       -3.63774622627985
C            0.88308780294290        0.49064618536191       -4.62171030041154
S            2.49030835701030        0.56699272171315       -4.01492876126015
C            4.36048387561185        0.20713659910545       -1.46113032131704
C            5.11904238189141        0.54647055963703       -2.56680521868098
C            6.47831436985102        0.73887498981021       -2.41469155464535
C            7.51819155902112        1.08236724558070       -3.35471245410908
C            7.36276742990577        1.38813238565232       -4.75016487911583
C            6.19017131197763        1.69402626869773       -5.41129880626431
C            6.35176368342502        1.95099747746332       -6.78859422136366
C            7.63779678319643        1.84725857927228       -7.21262817010892
S            8.67667996469118        1.43267971826505       -5.90691770875566
C            8.73478526350775        1.07054518827038       -2.62499852981895
C           10.08768271319048        1.36938505847109       -3.15462977010699
C            8.45481124532841        0.73776732878452       -1.29287833652357
C            9.40091929759572        0.61865623872297       -0.16786882226788
N            7.11899482237923        0.55719600586908       -1.20579608368493
B            6.38922291200389        0.16833243047156        0.09140631073971
F            6.57078370680507        1.17224255278453        1.03330115934296
F            6.88533940805859       -1.04624527848436        0.54561108874852
N            4.88827413209784        0.01878363497291       -0.20237033825895
C            3.94640975657695       -0.31671600934013        0.70762288334464
C            4.20941830659699       -0.58322037536753        2.13408311979146
H            0.96191209195271       -1.55401499012844        0.19680245613666
H            0.72354641982355        0.15867473713703        0.58638701177820
H            1.53785103371059       -0.90481230932022        1.72436281747297
H            0.09309124220389       -0.39720926407757       -1.51279744535362
H           -1.04261611592519        0.00777005809791       -3.79320513650668
H            0.61540351239460        0.70689138046705       -5.63866912939255
H            4.66197584534236        0.61290686421355       -3.52923052547958
H            5.23205630232531        1.76963751722660       -4.92655801038863
H            5.53005687108272        2.20882182751756       -7.44117097575197
H            7.97761209253635        2.00125688285218       -8.21939082155201
H           10.07846860338227        2.28528008993687       -3.74581853081253
H           10.44149761000492        0.55813651695266       -3.79118043027449
H           10.80936511275333        1.50331369501638       -2.34898782167766
H           10.20108928248798       -0.08395653391882       -0.40137790628910
H            8.88433997245417        0.25761426116428        0.72191983900164
H            9.84630260470341        1.58475370699301        0.07062244673168
H            5.26995303168569       -0.45444363922455        2.35181301375482
H            3.93307723993171       -1.60390915125985        2.39854775443006
H            3.64943802017288        0.10293277481837        2.76952826352677
