27
 energy: -5.138478193410 gnorm: 0.000569026031 xtb: 6.5.0 (97a52f5)
C            0.57545636723175        0.58884896127390        0.08148058277998
C            2.01980548299460        0.24433431308464        0.09077590292598
C            2.47707016702143       -1.07488051787397        0.09673289490299
C            1.78072958444909       -2.30858269422280        0.09442057337188
C            2.71822821145923       -3.32821532711737        0.10184485184441
C            4.00784567050026       -2.76393211268216        0.10915856515476
C            5.31062026375813       -3.45466061967146        0.11797425099198
N            3.83531779283471       -1.42990770993815        0.10604562782623
B            4.98314171187784       -0.41246792982446        0.11398697501867
F            5.73146236535501       -0.58078016978105        1.26959285599813
F            5.75566891167034       -0.58910309817086       -1.02427873003418
N            4.37821783200365        0.99692332635845        0.10277331956657
C            5.08392834135674        2.13650249483829        0.10298841778156
C            4.15599823216240        3.18724964887642        0.09343912234026
C            2.87729957959736        2.65301774544158        0.08759872200203
C            2.99535725920469        1.24087093255838        0.09334867388460
H           -0.05054830785598       -0.30267750297087        0.08222704600521
H            0.32304645074462        1.17091913605091       -0.80521607497416
H            0.31367480968556        1.17882909040029        0.96019640051598
H            0.71177753411051       -2.43375329531457        0.08783558025324
H            2.50328987057364       -4.38379861898764        0.10187436399591
H            5.18575213437085       -4.53758676507265        0.11798252637673
H            5.89406052367605       -3.17548027633992       -0.75963866908574
H            5.88295170243036       -3.17412467659417        1.00243730003763
H            6.15961449022604        2.19897306559405        0.10928412475109
H            4.39875377620299        4.23770687514481        0.09080937689952
H            1.95459924235811        3.20771572494037        0.07973541886876
