44
 energy: -9.072244321039 gnorm: 0.000496227847 xtb: 6.5.0 (97a52f5)
C            0.24496481947113        1.14780502055463        0.73432872691935
C            1.60123526563607        0.61376316749507        0.44873605476104
C            1.84348783305397       -0.75694628867825        0.38412031530153
C            0.94615408127940       -1.84427194431276        0.59772829027029
C            1.65866369954134       -3.00696629003408        0.49779567182225
C            3.01931885651938       -2.69922662615127        0.20626185536988
C            4.08953041801479       -3.66828588909676        0.04209243928098
C            3.94225008384717       -4.98527562751743        0.49194849392888
C            4.95430732083168       -5.90384176621745        0.33466503254161
C            6.13718371581670       -5.53752332205766       -0.27776661922265
C            6.30273483497037       -4.24467597825907       -0.73400138866426
C            5.29304245453839       -3.32571680702344       -0.57673650621648
N            3.08466433896997       -1.33698784520103        0.14656009788775
B            4.31663328043697       -0.45371870626698       -0.14638282651403
F            5.34338972582406       -0.83610471876569        0.70727221235294
F            4.64943597913117       -0.61048112099381       -1.48715438445104
N            4.00902001572021        1.03925729553716        0.09766084218168
C            2.70437620390766        1.45760550229927        0.33661326568451
C            2.77766004639682        2.87300710748334        0.49136232509518
C            4.08592368320284        3.24664336674278        0.35665764674185
C            4.87961614141817        2.09089558685505        0.10111904387231
C            6.32031068570943        2.07870476637372       -0.08675448363096
C            6.97057289061178        0.98534656742531       -0.66159885877216
C            8.33323750840757        0.97667782583618       -0.84005459082525
C            9.08758405076230        2.06588116111684       -0.45079118561407
C            8.46855801619193        3.16291388216270        0.11623029646025
C            7.10449734907402        3.17310616685111        0.29524309414622
H           -0.52907582880850        0.49230308491809        0.33532741939537
H            0.10517199400437        2.12860896713372        0.27981676372951
H            0.08563973173461        1.24580868044491        1.80840606029604
H           -0.10384243755950       -1.76204013674335        0.82041017005051
H            1.25087743704644       -3.99763911140602        0.60543092101301
H            3.02946447280110       -5.27561531730684        0.98139691832621
H            4.82535215675461       -6.91206454280730        0.69297162576245
H            6.92866652471512       -6.25878878986796       -0.39891429147509
H            7.22336512375446       -3.95685087511504       -1.21486213334652
H            5.41354856179700       -2.32401598898866       -0.94206288198941
H            1.94934725244364        3.52875910131354        0.69802570784496
H            4.45323540115430        4.25705159224871        0.41521657694424
H            6.38043570345451        0.14605853761023       -0.97566824345509
H            8.81281322661977        0.12039054049528       -1.28537037373199
H           10.15628974263803        2.06008025708768       -0.58925933303877
H            9.05705395434207        4.01258677424465        0.42164189662627
H            6.63265368383702        4.02627274059695        0.74954833633792
