24
 energy: -4.671588893781 gnorm: 0.000426276311 xtb: 6.5.0 (97a52f5)
C            0.77155611265831        0.16684572987663        0.04739207009379
C            2.25267446087272        0.06020339361844        0.04897137671052
C            2.91710602128507       -1.16774871437065        0.05147601936449
C            2.42873252592720       -2.49843378897945        0.05215954256408
C            3.51912078799232       -3.35308500622043        0.05423043491456
C            4.69260608856596       -2.58776504107564        0.05505700547612
N            4.31531746800170       -1.30191276522706        0.05339190163948
B            5.28177711487915       -0.11078811616824        0.05435263052149
F            6.05427167417193       -0.15328965305413        1.20382220427970
F            6.06237475218476       -0.15775691680505       -1.08944452597485
N            4.45848592186806        1.18283781688422        0.04907984797277
C            4.97211622105820        2.42055315248648        0.04636278181507
C            3.88770848009389        3.30826821500920        0.04281456991095
C            2.71148373642270        2.57605563037111        0.04353420682998
C            3.05468976590444        1.20145351476314        0.04749172375857
H            0.29814595839889       -0.81430555360465        0.04956887979776
H            0.42375582001050        0.70108758764958       -0.83726655230119
H            0.42224605574470        0.70567932057924        0.92867001928107
H            1.39414654189667       -2.79570292996059        0.05083384543485
H            3.47376647661807       -4.43043872022901        0.05485307320805
H            5.71344724550539       -2.93362022120824        0.05675274261409
H            6.02414498096641        2.65485387811649        0.04671781455048
H            3.95855679752609        4.38419472506033        0.03962367998182
H            1.71186899144688        2.97616446248827        0.04109470755635
