65
 energy: -12.651330043911 gnorm: 0.001279968767 xtb: 6.5.0 (97a52f5)
C           -1.11584125872942       -1.06868933203616        1.41012474830119
C            1.71605568922385        0.59030828716414        2.30008043494210
C            2.86952343620220       -0.51096163928200        2.04423542559189
C            4.30312257387936       -0.95656166279269        1.59308547963644
C            4.87155974242372       -2.10449480136734        2.46046540805197
C            3.87558011596306       -3.09472263728325        3.03435114947454
C            4.30333493194964       -4.35333721847788        3.40689741598483
C            3.45593813425572       -5.24366350596164        4.05143064523709
C            2.15371811836596       -4.87762837607992        4.35669091724655
C            1.68858265726779       -3.63712452028163        4.00443361098670
C            2.52469016294005       -2.72807722525237        3.31824449295791
C            2.04898577676847       -1.44925687483478        2.88994713393338
N            1.54745598516796       -0.28778217765974        3.57623916742151
C            2.89059711040549        0.43866951517589        3.33218777818078
C            2.47169696655256        1.82017219035555        2.78294743400929
C            3.20695158683996        2.71347274836649        1.97482508823029
C            3.56797994544192        4.00380369041208        2.46348529435366
C            4.28522937435806        4.87639853814325        1.68179335866147
C            4.66752376064379        4.51831091437736        0.39683579676816
I            5.75641899181085        5.86008408495064       -0.78103963594756
C            4.32615609321453        3.27405019952389       -0.11260872877668
C            3.61111524795392        2.38240004409941        0.64829778593130
C            0.75155952662315        1.37201519569830       -0.88124858595771
C           -0.43223421208621        1.98803800230442       -1.22728435249867
C           -0.82516024494109        3.39199873368763       -0.95414025285819
C           -1.17906415099512        1.03552560059429       -1.91746381358192
C           -0.42282221948225       -0.16023050095771       -1.96419629561366
N            0.80206489019471        0.07245192516896       -1.29718723215835
B            2.00089043822054       -0.69560560462488       -1.01605416177270
F            3.21250858116604       -0.14584834873738       -1.25177823028529
F            1.89908482104616       -1.96358193187433       -0.56433832957958
C           -0.91293616957240       -1.33843602344371       -2.60385449638819
C           -0.26131152782012       -2.57139294714076       -2.48051128499426
C           -0.76559581784717       -3.69525716012232       -3.08237993661398
C           -1.92941069669925       -3.61723813161130       -3.82277659583768
C           -2.58604178481644       -2.40766564939645       -3.96067668599422
C           -2.10336675765796       -1.25958964763163       -3.36418020314152
C           -2.80729413700982        0.06023714822266       -3.58546559778671
C           -2.55065000003755        1.13551022166880       -2.50081913575622
H           -0.71898790105628       -0.60961954455728        0.53208917835214
H           -0.40436750402696       -0.95154358475948        2.19705782035341
H           -1.27408155472581       -2.10821905288628        1.22561340649020
H            4.96612413521744       -0.08533974045432        1.61083457596704
H            4.24368398931424       -1.27046194088899        0.54593983441540
H            5.42570848498672       -1.67282957798783        3.30245905366520
H            5.62051840509003       -2.66172598543622        1.88447455567103
H            5.32293465603731       -4.63703706566324        3.20929222286365
H            3.81649623073674       -6.22031738594475        4.32907920324923
H            1.50613503425292       -5.57089952811248        4.86802105900152
H            0.67616993522064       -3.34724032023165        4.22558034236356
H            3.27100366204852        4.28123521920784        3.45973054909278
H            4.55856246169617        5.85027037661741        2.05723859560275
H            4.62345977516389        3.01988891289190       -1.11827627444816
H            3.32722372550118        1.43224976439154        0.23294500558465
H           -0.15644597768253        3.84248492777454       -0.22097216058698
H           -1.84029998349341        3.44317682061532       -0.56081324276058
H           -0.77978843512290        3.99022048595226       -1.86399614338913
H            0.62796778751659       -2.62807706424266       -1.88097588986046
H           -0.25741416437262       -4.63945355522197       -2.97421308701019
H           -2.32514999647379       -4.50053857690348       -4.29632171154658
H           -3.48465240256654       -2.35228861467729       -4.55077276263260
H           -3.88389023200274       -0.12512830132834       -3.67906346631298
H           -2.49217523828116        0.44791488332833       -4.56100494904582
H           -3.28171723566984        1.03056577563227       -1.69127287728542
H           -2.69732339813505        2.14166168661565       -2.91079784407613
