82
 energy: -17.544493530324 gnorm: 0.000785919746 xtb: 6.5.0 (97a52f5)
C            7.22086453359824       -1.69136461284205        0.55705613099668
C            6.27338320956642       -1.36872269255982       -0.53997456362029
C            4.90999725160911       -1.21019646191261       -0.30347554735452
C            4.09807350302975       -1.42430602448479        0.88341498425091
C            4.36530264899442       -1.93461062033863        2.15349299282668
C            3.33799433616928       -2.02779087330992        3.06881972797833
C            2.04272467076212       -1.63400485327643        2.74224567381556
C            1.74730002617757       -1.14934904335697        1.48795239891954
C            2.77367632169287       -1.04787857755861        0.54881732031173
C            2.75806946651997       -0.62543622440107       -0.82761190621542
C            1.59858187090080       -0.16078863503973       -1.60791813230820
N            4.00518304834919       -0.75131375206096       -1.26801554971720
B            4.40905567567905       -0.40100174710149       -2.70597397190223
F            4.20750440803353        0.95758010000531       -2.91864527281252
F            3.66299213166042       -1.17113046756723       -3.59030067344378
N            5.89747369272730       -0.72460554873392       -2.88791146961363
C            6.52255262517030       -0.57409839260355       -4.05472254703125
C            5.92054333359834       -0.10348226616923       -5.31351061087108
C            7.88310835677419       -0.97718231971523       -3.83639598465521
C            8.96034057850872       -1.04300105642623       -4.69796329136427
C           10.20172233879866       -1.51323886961429       -4.23808938105053
C           11.32671569237601       -1.56450068956606       -5.12434444907116
C           11.21299876274551       -1.13572272988015       -6.54046100784221
C           10.50139347259189       -1.90226518416668       -7.46664829132693
C           10.41082507740409       -1.50944034261222       -8.78252326624490
C           11.02506378695320       -0.34605989658223       -9.20251531728931
C           11.72889502500600        0.42798644635920       -8.30076953475706
C           11.82203986766426        0.04094906908336       -6.98329214966481
C           12.53592681257778       -2.03662781163713       -4.61307350551584
C           12.66387029060571       -2.45757129595086       -3.25852217537624
C           11.58594132046336       -2.41478276853768       -2.37250594114769
C           11.73885667868253       -2.84971038296607       -0.96230088671689
C           11.11780007846096       -4.01191635407524       -0.49886061018479
C           11.26614177568781       -4.41474690257752        0.80868829279327
C           12.03453508221923       -3.66891206261748        1.68100665939382
C           12.65320328627922       -2.51459326372907        1.24262838431726
C           12.50676382302527       -2.10569372086184       -0.06328202941800
C           10.33235798347771       -1.93326454038400       -2.86807350518146
C            9.21998702333387       -1.85367802315227       -2.00815053346044
C            8.01418575484431       -1.36994744862939       -2.46853715746784
C            6.71467356537250       -1.18160729762492       -1.85206143992035
C           14.03242565551531       -2.93525633049079       -3.05983606453145
C           14.75105298717190       -3.47597364830862       -2.01265000622175
C           16.08950607998736       -3.84074792706703       -2.21753969946616
C           16.71449555456124       -3.68321877161330       -3.43454456946474
C           16.01282232920167       -3.14185919431261       -4.53710677988318
C           16.48604157496486       -2.92942025812150       -5.85323115349410
C           15.65507043949519       -2.40606026611564       -6.81862277368782
C           14.32239551394733       -2.06181032536152       -6.54996352629404
C           13.82335260280182       -2.24571489699180       -5.27648769243054
C           14.68358181257369       -2.78377687448726       -4.29977275257764
H            7.35446258920607       -2.76865650673144        0.65973746026456
H            6.87071094455043       -1.29096365908523        1.50735717865301
H            8.19362288618724       -1.23368569168555        0.38117714059469
H            5.34987012659619       -2.27967844188956        2.40928254239538
H            3.53886598322778       -2.41831939373671        4.05295650995816
H            1.25997300463082       -1.71912320627078        3.47795917404260
H            0.74635420359226       -0.85773563876751        1.22311487640319
H            1.13854899879421        0.71117076944789       -1.14217495062859
H            0.84490339845819       -0.94453839602514       -1.68822097353268
H            1.90665775213609        0.11706457653628       -2.61612316680694
H            5.92266020566096       -0.89359887970812       -6.06463689814302
H            6.46804904266034        0.75070768470868       -5.71247436212179
H            4.88743880454816        0.20293884682614       -5.14822425983396
H            8.84405576286677       -0.73499867521111       -5.71962450930304
H           10.03075642816967       -2.81206439985097       -7.13631404448549
H            9.86185176172847       -2.11260892914978       -9.48706131818457
H           10.95441786102382       -0.04157605814035      -10.23389086099241
H           12.20631950123539        1.33640751986402       -8.62959507118130
H           12.36879114916883        0.64123663654094       -6.27664297753773
H           10.52528203889813       -4.59365745798133       -1.18389216283883
H           10.78280655740893       -5.31460230156848        1.15236724293202
H           12.15066790620927       -3.98745399736949        2.70395256982782
H           13.25173158996776       -1.93273971004938        1.92437604921816
H           12.98514647287783       -1.20577994065161       -0.40961845099297
H            9.31585130477869       -2.19584120381990       -0.99712164067548
H           14.28152084745498       -3.61496501673884       -1.05651365591843
H           16.64431555684440       -4.25872095830409       -1.39390698117344
H           17.74228315860077       -3.97370112689709       -3.56340011514564
H           17.50324369831288       -3.18849668845715       -6.08901544372212
H           16.03759681237445       -2.25696655214908       -7.81477083860248
H           13.68942991306473       -1.66128657189006       -7.31999490738190
