50
 energy: -9.735774515963 gnorm: 0.000695461623 xtb: 6.5.0 (97a52f5)
C            0.41836227900428       -1.00262119994201       -1.46532685302953
C            1.67659033788888       -0.41437290433518       -0.94116115785501
C            1.83941571811786        0.96698951139553       -0.83166649099310
C            0.84706780625416        2.03322765136600       -0.94208692090905
C           -0.51412599630839        2.04687726920606       -1.23429109995830
C           -1.18969211612359        3.25051173377761       -1.24321978427218
C           -0.53415804391567        4.44222908207614       -0.95862798589799
C            0.80758119010445        4.44830582056465       -0.64709492508791
C            1.50014667992796        3.24159094172179       -0.62699882989559
C            2.89285138520325        2.95750709903673       -0.33794992732038
C            3.82341684449854        3.93171912636452        0.17233965072710
N            3.45681004661336        4.95042120696091        1.04857237769178
C            4.54324306199725        5.69987362718548        1.35974946177066
C            4.55699257295311        6.86638368248712        2.26816458278084
C            5.63228935552438        5.18967211871349        0.65750409426498
C            5.20515500035880        4.10171079035086       -0.08878157085970
C            6.05540792007087        3.32013524405963       -1.01481724946713
N            3.02113135337424        1.60258639150014       -0.48082197238460
B            4.31289775674375        0.78522932230100       -0.29831861400729
F            5.07581950185051        0.87502518788051       -1.45616302766373
F            4.99547644575699        1.23633206298659        0.82354805039213
N            3.96478041569828       -0.69728532053162       -0.10771153029689
C            4.83163227061513       -1.64521646525495        0.26919890183352
C            6.24164865215339       -1.44610512401355        0.65356158855735
C            4.14646852347418       -2.87194651435340        0.15549363967436
C            2.86085146414613       -2.63487895806780       -0.29779005397038
C            1.83927499728192       -3.68834237673029       -0.51649519674556
C            2.73373193552589       -1.22134361698899       -0.49225557442589
H           -0.34069110648804       -1.06874456696596       -0.68515747293907
H            0.58379664522060       -1.99993387071938       -1.86882397349497
H            0.02574567925852       -0.40612550345009       -2.28852600070299
H           -1.04167435605155        1.13293350321188       -1.43330052535957
H           -2.24231946324546        3.26666468204632       -1.47359649092259
H           -1.08175951223723        5.37006473804294       -0.97755065291151
H            1.32433644105853        5.36559006677709       -0.43181333636948
H            2.52458037579614        5.05214653041819        1.44851359952808
H            3.60157377712832        6.96918602964847        2.78251538139621
H            4.74252600714085        7.78669855801625        1.71387288330207
H            5.33650716297554        6.76145692577348        3.02326457628502
H            6.63435969970389        5.58256920071695        0.68149409540756
H            6.92104756495940        3.89753907907875       -1.34070803808823
H            5.49339643579173        3.02516542010303       -1.90113200012868
H            6.41441567361553        2.41235768435318       -0.53005598961802
H            6.44789234886866       -0.38902325114481        0.81833236822247
H            6.91002313229486       -1.80157474283256       -0.13090424021155
H            6.47551807308014       -1.98411513631623        1.57247889483829
H            4.56158691014545       -3.83873402454553        0.38317081069434
H            2.13525465593423       -4.62022996319630       -0.03303982155136
H            1.71083794478627       -3.89607102421519       -1.57931996158243
H            0.87611855147268       -3.39571572452336       -0.09698768844875
