71
 energy: -13.326877591085 gnorm: 0.012544903586 xtb: 6.5.0 (97a52f5)
C            1.09856094704159       -0.50703764843302       -0.42406504157525
C            3.22284203536168        2.37883879262476       -1.21047753832270
C            3.68010842348606        2.69874074987796       -2.48097674275244
C            4.60987836269092        3.25960530619665       -1.18020578403095
C            4.88289097733229       -1.03412909389644       -0.30595874136081
C            4.84171736136886       -2.30110736645298        0.13492978149235
C            5.94395391144104       -3.03820435065868        0.62210350038496
C            5.77531171668143       -4.36884244990075        1.07339801303138
C            6.84221654370936       -5.08869452334780        1.55108825796366
C            8.11956290096877       -4.52868962307230        1.61004102817590
C            9.27785514297727       -5.32179759379265        2.10469363159627
C            8.29958693106859       -3.22199436820424        1.15610008139629
C            7.24472197682700       -2.48803074750954        0.67520782601446
N            5.98837244576900        3.92101949177234       -0.49533581949744
C            6.05452126026135        2.52215590359497       -0.90595595867222
C            7.05894185184675        1.72042441954936       -0.83835602654784
C            8.15148193951913        0.85665122333114       -0.76116451952968
C            9.02126791862131        0.90016552051914        0.32682993751961
C           10.10135586299010        0.04849532310801        0.39900492661132
C           10.33374922385930       -0.86185543585486       -0.61196155230384
C            9.48039090551940       -0.92092065127178       -1.69532304844939
C            8.39878366743103       -0.07128748956670       -1.77060226190025
C            7.13450694101906        6.40567459472727       -0.48623324505071
C            7.55166124401245        7.73332779994823       -0.40651098036830
C            8.94781461023966        8.22728129973240       -0.30720798644234
C            6.41358584059054        8.51054078869923       -0.39316480791391
C            5.32482605256355        7.59880665550736       -0.47759626399073
C            3.95631581045469        7.91520863089230       -0.53824814729268
C            3.44847085563116        9.17963101984812       -0.55345070874454
C            2.05430965487643        9.50878887525065       -0.62965290930025
C            1.65884496825667       10.85306100619808       -0.65510521703471
C            0.33055353290619       11.19873681589621       -0.73247184024183
C           -0.65873906187315       10.22448289371211       -0.78159735484287
C           -2.09465444278405       10.60136690811168       -0.89506046066039
C           -0.27579078906850        8.88935115021690       -0.76609733640640
C            1.05000092354872        8.53295680708866       -0.68910878963457
N            5.80618435670769        6.27933117853188       -0.52554329968466
B            4.76619095370356        5.03895296912901       -0.82455599141414
F            4.32729925970113        5.43724045390960       -2.11583917710418
F            3.78358761848010        5.18537652546758        0.16560505431332
H            0.60079356979822       -0.33098840377356        0.50413942448422
H            0.37756514077134       -0.60865926788134       -1.20522025401052
H            1.75033227495363        0.31062920713625       -0.64245559997228
H            3.22467497384702        2.43174172370752       -3.43001825096965
H            5.44526735406552       -0.18606544139409       -0.48704904177557
H            3.88553633803795       -2.80378496772842        0.12193999064545
H            4.79579273337803       -4.81337972538196        1.03667599870273
H            6.70033734013572       -6.10205235506112        1.88585805029886
H            8.95333499177022       -6.12150300932670        2.77164053127925
H            9.97608650118671       -4.69263155512151        2.65824859102543
H            9.81883539748526       -5.77501497036592        1.27317023531615
H            9.28574844345924       -2.79216090647778        1.18095001955919
H            7.40576961215892       -1.48661837442355        0.31931260661543
H            8.83794836019872        1.61381937771380        1.11206984589745
H           10.76523892999425        0.09395893320174        1.24652796789544
H           11.18097516641302       -1.52530212779535       -0.55453831960200
H            9.65995081790598       -1.63425587314294       -2.48256328011190
H            7.72983171634742       -0.11445667524169       -2.61301528949835
H            9.64567101336183        7.48670518097076       -0.69742933656822
H            9.21373898948652        8.42958147819500        0.73050135920958
H            9.07746924582694        9.14707644377306       -0.87768022595061
H            6.36970077483775        9.58400005800741       -0.33241993729796
H            3.28393237946267        7.07978290260780       -0.58389200770683
H            4.14016136561811       10.00130790855007       -0.51332975495391
H            2.41228855572364       11.62073913741988       -0.61556136064775
H            0.04617995249421       12.23670325102817       -0.75815028378194
H           -2.27694535262269       11.59086160256882       -0.47507401687271
H           -2.72917868908017        9.89321427940944       -0.36115128003690
H           -2.40936702434578       10.61544855987049       -1.93894693483535
H           -1.03499690161394        8.12763028925111       -0.81745530849649
H            1.31671500388841        7.49183129918338       -0.67603863943293
