51
 energy: -11.285275313790 gnorm: 0.000429094691 xtb: 6.5.0 (97a52f5)
Br           1.24658117115896       -0.41700482187151       -0.01586882129785
C            3.12476659772431       -0.25263949471674       -0.00855157332245
C            3.87432701141511       -1.39071721544220       -0.01838833445403
C            5.29109459576682       -1.34602128740145       -0.01334411069241
N            5.98045918912353       -2.49272706295403       -0.02420926282742
C            7.30525686359646       -2.34648645440271       -0.01613261315968
C            8.10922234999519       -3.50818313202367       -0.02973332417685
C            9.48528650868487       -3.46872717251084       -0.01844084266683
C           10.14215612174475       -2.20282716141653        0.00874240209398
C           11.54926854468464       -2.15511186398889        0.01547235756133
C           12.17340395443079       -0.90560577213385       -0.00369409599774
C           11.43464198451438        0.25896593778926       -0.00349468511755
C           10.05934626329272        0.20966384193845        0.00853903011023
C            9.38752786606354       -1.01173857000637        0.01038131714782
C            7.93980080398467       -1.06618749454727        0.00389639024624
N            7.26118767265379        0.06799691061640        0.01277615909198
C            5.92514785630164       -0.07306546579767        0.00324025689986
C            5.10989471376226        1.08342836408124        0.01230246619025
C            3.74882124385570        0.99804860043150        0.00671312832380
Br           2.75038566913060        2.59721528711590        0.01982319224343
C           12.28757444007258       -3.39108927665763        0.01361524252442
C           13.76909837757683       -3.36895593328381       -0.01643603431543
C           14.49998176405258       -2.76352019389331        1.00943550957124
C           15.87529603529645       -2.74554681595962        0.97887545251738
C           16.55306146446090       -3.33136214614721       -0.07171887843201
C           15.85011239621764       -3.93664380684242       -1.09436424801372
C           14.47471626298161       -3.95605896729739       -1.07005030194240
C           11.57880458681317       -4.59253899493146       -0.00176223890293
C           12.26252029453974       -5.90247866762187        0.01977052544035
C           13.33266791728098       -6.16810246081861        0.87274049995394
C           13.93192110721254       -7.40726467663504        0.88404736027615
C           13.46880027924680       -8.40786818383179        0.05347846096295
C           12.39831903510747       -8.16736515686648       -0.78428666738504
C           11.79744734083258       -6.92851397971587       -0.79721094664562
O           10.20518054152487       -4.65087340218756       -0.03737060869835
H            3.38396599402405       -2.34830151332121       -0.03011163677336
H            7.62507558121533       -4.46567197537724       -0.04838878300716
H           13.24698273300498       -0.85435906171671       -0.02960400423692
H           11.93697475252662        1.21217786061591       -0.01459195160730
H            9.48153010561192        1.11690593584850        0.00828410749637
H            5.57973855404826        2.05123132435713        0.02444824738829
H           13.97008492156119       -2.31983387315960        1.83464925787900
H           16.42458203484312       -2.27479396671609        1.77757867564997
H           17.63037472142871       -3.31714094061539       -0.09293833694277
H           16.37973641252345       -4.39564855463261       -1.91290213782048
H           13.92394896753331       -4.42600876567252       -1.86637400196730
H           13.68654522590867       -5.39179565440919        1.52797386986566
H           14.76280380237976       -7.59632798814401        1.54373437255258
H           13.93869773705794       -9.37759282623895        0.06359150863848
H           12.03115289298386       -8.95045613850009       -1.42714766551930
H           10.95530673825032       -6.73591717238474       -1.43956368470253
