50
 energy: -11.108566778203 gnorm: 0.000806029466 xtb: 6.5.0 (97a52f5)
C            0.91364542980325        0.04395236319207       -0.07869845991815
C           -0.30590516431289        0.03485700215495        0.02876293587121
C           -1.70456609671355        0.00533757972929        0.13898079039054
N           -2.37107965984784        1.13570671559907        0.25369040926672
C           -3.69585089277112        1.01512065528002        0.34831528527699
N           -4.45184336384256       -0.04242618480209        0.34756794571703
C           -3.78461722983864       -1.21369629189194        0.23048072255417
C           -4.48396576167940       -2.43678721950773        0.21257623996932
C           -3.82036245135723       -3.62445725196693        0.09313787093418
C           -2.42848347714394       -3.64660349833686       -0.01398881929925
C           -1.72127189157812       -2.48067951394468       -0.00051889932415
C           -2.38268175566349       -1.24035147985299        0.12172970110171
C            2.31231949618895        0.04070735626725       -0.20924593504537
C            2.96556266136733        1.05314620687386       -0.90868060186555
C            4.33351666984540        1.04890694623467       -1.04000841760749
C            5.10221735240966        0.03210032824055       -0.47660417935799
N            6.52765078249525        0.02620936916370       -0.61776881181627
C            7.25284307738390        1.26500525032798       -0.66018649413037
C            6.88136343970452        2.33666745578030        0.14822277412041
C            7.58087150919358        3.52175137420614        0.10942959582579
C            8.66404733531510        3.65935531422187       -0.73637831835277
C            9.04505337868675        2.60626088438393       -1.54478607309698
C            8.34698024506329        1.42027650277623       -1.50790134648376
C            7.23625733045313       -1.21679608724284       -0.73810266845785
C            6.68972215643399       -2.28382321095669       -1.44704209039674
C            7.37272535950153       -3.47308773655931       -1.56587684514128
C            8.61490557333101       -3.61928075033380       -0.98008717802464
C            9.17164458050710       -2.57033414132819       -0.27499130086935
C            8.49017820272985       -1.38026334495824       -0.15429281378889
C            4.44825953393526       -0.97956250623404        0.22441819651360
C            3.08015842240540       -0.97538669508509        0.35545985726188
H           -4.22705236383592        1.95269181903748        0.43974261023152
H           -5.55626430449648       -2.41481039945037        0.29535084918143
H           -4.37158475521991       -4.55036165074740        0.08133320262645
H           -1.91407875106864       -4.58886743705789       -0.10784582683885
H           -0.64871209891663       -2.49486203179884       -0.08337644972080
H            2.38077296284257        1.84213139045096       -1.34981330423135
H            4.82747197982790        1.82823480575476       -1.59316889391905
H            6.04263017680326        2.22151378873893        0.81219335627327
H            7.28335480743289        4.34240661527421        0.74148755774362
H            9.21112290325501        4.58739748937429       -0.76577623375187
H            9.88911005007274        2.71330893491975       -2.20637770771148
H            8.63256736536870        0.60017871352129       -2.14311090999196
H            5.72738019895464       -2.16055194366807       -1.91207093449806
H            6.93823425519058       -4.29032764321288       -2.11784182569347
H            9.14906956257962       -4.55053151967375       -1.07381994192828
H           10.14087591381254       -2.68372620766809        0.18234510025469
H            8.91540187685562       -0.56285367630208        0.40114181322141
H            5.03382663232418       -1.76176308951527        0.67449614406614
H            2.58516879629813       -1.76169334940901        0.89934832291994
