66
 energy: -13.021771606532 gnorm: 0.000636165659 xtb: 6.5.0 (97a52f5)
C            7.52476772258866        0.21251756423166       -2.67682235300436
C            6.60784882712554       -0.32352447920157       -1.64196190097321
C            5.68863901541464        0.40795190057284       -0.93540478545975
C            4.98783179812090       -0.45672441369894       -0.03763500964329
C            3.91017186463315       -0.18063025596846        0.84000922122241
C            3.51253368532377        1.04462737366651        1.31608557328596
C            4.28096186989874        2.25382215616346        1.35359682982521
C            3.63269001917705        3.49810193776825        1.49594376464432
C            4.34224437310123        4.65890996545303        1.55929573030238
C            5.75520614925531        4.66355639708043        1.50358971335004
O            6.38675280147235        5.87854222562854        1.55686831980138
C            7.80829197969075        5.82267339538500        1.47160833582532
C            8.43155600496369        7.21032632699453        1.49422113517246
C            9.95390282255089        7.18464511464368        1.39720010683453
N           10.52013032535485        8.44619556416800        1.42308053935342
N           11.73638672885712        8.57058461257334        1.23921930210504
N           12.89569710561629        8.67021978789266        1.06479246546765
C            6.40592335546734        3.41195878884906        1.40343147130114
C            5.69134213445536        2.25397309211486        1.33863727018411
N            5.50592404104194       -1.69849381606072       -0.26056850075794
C            6.50068014331382       -1.69302535025046       -1.20660159732649
C            7.20139579876759       -2.84789562190541       -1.61153793943237
C            8.27431291219061       -2.79301951500154       -2.63502854238380
C            7.99949180082625       -3.06828138508717       -3.97708422740890
C            8.99731178776808       -3.01781928135833       -4.92282341538149
C           10.28730491352566       -2.69223916635194       -4.55312380372585
C           10.57860166214862       -2.41659114906138       -3.23179867294548
C            9.58578730169816       -2.46587808306522       -2.28077696746026
C            6.82631168277009       -4.05642200795957       -0.99423098871456
C            7.31398794980352       -5.38765406248157       -1.15476200485766
C            8.39051411274495       -5.84106035063552       -2.06838564683701
C            6.58457590018037       -6.19697805707045       -0.30039496161871
C            5.65393128064754       -5.40514851587196        0.40268580146947
C            4.67946969053721       -5.84269848796233        1.41900918173481
N            5.82546609346013       -4.15186778207846       -0.03221417056268
B            5.03090434653397       -2.94897115688791        0.48774879310063
F            5.27942446020136       -2.79308851581630        1.84419887031982
F            3.67973995060499       -3.14799768350746        0.24142776173839
H            8.56488255782549        0.09528641704764       -2.37266951599530
H            7.34493939511266        1.27417329215340       -2.84792728426373
H            7.38652553625493       -0.30674467895237       -3.62525260888240
H            5.49480732081122        1.45740127551084       -1.07073487628031
H            3.32078316693860       -1.04255843462606        1.10988988607351
H            2.52837748107075        1.10646526244621        1.75467566932494
H            2.55742172353492        3.52117930349324        1.53915349210882
H            3.83907413533473        5.60482520072367        1.65278710090997
H            8.07428337830004        5.30173038994814        0.54473280607055
H            8.17676068491700        5.22545077930124        2.31345696314612
H            8.12822783203467        7.73148985809648        2.40833152816827
H            8.01951590442459        7.80803941317611        0.67427723104406
H           10.26744343198883        6.68531862539503        0.47255756149683
H           10.37924557860107        6.59883943122342        2.22088324712829
H            7.47938810018563        3.36895759779613        1.38887911573756
H            6.20775452030618        1.31081384454066        1.30931772873246
H            6.99196699145472       -3.31945390917035       -4.26028490711478
H            8.77164442821716       -3.23256477964407       -5.95441735492516
H           11.06697829106961       -2.65309432309698       -5.29601334380447
H           11.58578735913706       -2.16243377466166       -2.94495772513513
H            9.80801666697473       -2.25421404535120       -1.24919806317141
H            9.30053226862943       -5.26074452305953       -1.91567291689903
H            8.08758968501985       -5.73142114312069       -3.10974376679223
H            8.63227303614858       -6.89051833573385       -1.89874926067813
H            6.70977621430907       -7.25991892578078       -0.18521853269741
H            5.18045630597642       -6.33601841389578        2.25225889015154
H            3.95682088832245       -6.53788755907609        0.99114681030371
H            4.13282270430197       -4.98455491067225        1.81163742747872
