116
 energy: -18.906254344162 gnorm: 0.000588983122 xtb: 6.5.0 (97a52f5)
C            9.07676869657598       -0.76518273802777       -0.78450547427663
C            7.70576524149749       -1.29396229789934       -0.59174788810362
C            6.54543543844265       -0.61645693672639       -0.86553526711931
C            5.42620530319693       -1.45191050110453       -0.56460195903202
C            4.04592577044332       -1.22657388429611       -0.73230014646817
C            3.42053497697924       -0.02461202187267       -0.95477702504247
C            3.96309742029930        1.29360207083397       -0.71839767741603
C            3.48595591524526        2.39484595288255       -1.43834242931650
C            3.97576943806234        3.65738453135184       -1.20554267692723
C            4.94562631355860        3.88798844584029       -0.24068833546701
N            5.45666632219343        5.25652255085518       -0.03657511313131
C            6.07098504877119        5.82133904551659       -1.30653737812342
C            4.35525622735705        6.20522001404026        0.40416748412637
C            6.54178616037728        5.35463997221314        1.02601307835343
C            5.39775681265649        2.80652246485474        0.50267438530830
C            4.91623341540137        1.53984133050334        0.27681802099589
N            5.97308339790502       -2.63887167748915       -0.13263853219785
C            7.34456913319250       -2.60887927990375       -0.11245599448303
C            8.14174478699658       -3.69742970502232        0.28935725725299
C            9.62284746068478       -3.61693910505147        0.30268193861100
C           10.37519635031579       -4.04963337888180       -0.79125250754224
C           11.74635601578546       -3.96440709249604       -0.77887220698062
C           12.41765250624600       -3.44509880212624        0.32228112652413
C           13.82594474212833       -3.35030549368249        0.33262997640708
C           15.03816649746939       -3.25138168570556        0.35845312826553
C           16.44267864918130       -3.08420104675072        0.41875206604162
O           16.85886336472062       -1.79729834410665        0.87904525522054
C           18.27715034476524       -1.64159568477725        0.94111730581160
O           18.70820833194612       -0.63943577346177        1.87167342848271
C           18.26983314039847        0.68116161557878        1.55188976111538
C           16.76994425567139        0.86635482754856        1.79206946985741
O           16.46600388892603        0.73566590868311        3.16229469134366
C           18.75359532848579        1.10023582371099        0.13550360271881
O           20.14764450206207        1.29193470818379        0.14062463730748
C           18.36674353469263        0.04345524500274       -0.92933468590411
O           18.91911379306048        0.37390877881253       -2.18180488080498
C           18.86898354557797       -1.34312194539197       -0.46373344893823
O           20.28422778326303       -1.36375404126072       -0.43847813704221
C           11.67240522498424       -3.01598891464464        1.41459728460071
C           10.30128500320788       -3.09941297650996        1.40799331164028
C            7.45761058356997       -4.87003571926179        0.66105304006189
C            7.94364491417223       -6.16125763095368        1.09527853965962
C            9.36006596867526       -6.56580116865442        1.25784771337996
C            6.85481548245434       -6.96672941253996        1.31535165078979
C            5.66401161948589       -6.22816575633111        1.04316740046875
C            4.32111641838778       -6.62151601931513        1.12535476108620
C            3.90161022363958       -7.85442952099710        1.52607884395439
C            2.53539252920338       -8.28084287730490        1.60993923462535
C            2.23891598126404       -9.57724571516587        2.04526078018782
C            0.93949238175135      -10.01350678637731        2.13653705641211
C           -0.12248691650613       -9.18753626903366        1.79980949530165
N           -1.50170344857628       -9.69759548105030        1.91576774199293
C           -1.72182706790099      -10.92279640671232        1.04410256181394
C           -1.83657543318332      -10.08396557383271        3.34639699526756
C           -2.56548352965936       -8.69387544741127        1.49570741301481
C            0.16356861948429       -7.90006259933501        1.36648160920503
C            1.45973175521126       -7.45162973235894        1.27122412058023
N            6.09044325447282       -4.97886622700364        0.65730405347142
B            5.13513758727349       -3.83146757977192        0.32957880700786
F            4.43735075144084       -3.48215250010996        1.47108573943766
F            4.27386065647566       -4.21637936326467       -0.68070464128840
H            9.61585021499666       -0.73042583843557        0.16203658124090
H            9.05295859361460        0.24543954372230       -1.19259170479465
H            9.64044752888640       -1.39134493248928       -1.47597890983405
H            6.49187191198021        0.37107646239421       -1.28761693659498
H            3.44165207726797       -2.11956253067782       -0.73220381473999
H            2.40004054072363       -0.05414623436179       -1.30370394807190
H            2.73433599915598        2.23884030104269       -2.19275200433711
H            3.59949322991246        4.48386339116094       -1.78172719274750
H            5.32709816423541        5.88899431861119       -2.09525902343486
H            6.87546747685069        5.17416808828886       -1.64654127873771
H            6.47362254272576        6.81547921718241       -1.12998768872126
H            3.90694588891791        5.84599572424051        1.32696946157456
H            3.57911556292007        6.26854329276331       -0.35332558292688
H            4.75183556507602        7.20300701818749        0.57391298371129
H            7.39248947891392        4.73422760860793        0.75567990552167
H            6.15706333954040        5.03435926882584        1.99083647872332
H            6.88835284459076        6.38025246316161        1.12426631580902
H            6.13029509329670        2.95455355808263        1.27502329456313
H            5.25188390209713        0.72154151090629        0.88937199559524
H            9.86279697443022       -4.44875695215615       -1.64928709108954
H           12.31831134496487       -4.29865391064379       -1.62743716005161
H           16.87825703725381       -3.25156352365162       -0.57235014671245
H           16.87402468419135       -3.83139773344457        1.09618634253594
H           18.69014529765725       -2.58327195040647        1.32954786090180
H           18.80055691140603        1.31614685280454        2.27969608094159
H           16.44426835604066        1.85617073942488        1.44973357517024
H           16.21105851713683        0.11101220003735        1.22868566655740
H           15.50379801607174        0.76548062254229        3.32413391444921
H           18.31567775803222        2.07216081647850       -0.14006736300289
H           20.56464039220524        0.41367743205121        0.23846932705449
H           17.27357495737950        0.01917748282279       -1.05947118691828
H           19.88908246597581        0.37240292340084       -2.10483546011577
H           18.54367933417545       -2.09629062497195       -1.19685371148869
H           20.61428998080736       -2.23620910346130       -0.15715917922832
H           12.18727847675505       -2.61397497009270        2.27035686434165
H            9.73179357149970       -2.76633687587366        2.25817051503181
H            9.90240588318814       -5.84527721526915        1.86975691503691
H            9.85657396773218       -6.63480728419433        0.29002106109811
H            9.43596554565087       -7.53864493787390        1.74387343428666
H            6.89734922930335       -7.99125648900414        1.63924656081639
H            3.59713515722024       -5.88124556534293        0.84171343297518
H            4.65132631284086       -8.57264153621617        1.80419768890297
H            3.04657400207068      -10.23728527803960        2.31082153353740
H            0.74144796881857      -11.01438883789804        2.47663056616220
H           -1.06739229434283      -11.73401825009370        1.35028072428205
H           -1.50671807151267      -10.68045646035686        0.00648052830035
H           -2.75029381767518      -11.26717932078313        1.11660487679147
H           -1.71456368990714       -9.22306274621851        3.99878996737812
H           -1.17720980997754      -10.87432251085510        3.69396390454296
H           -2.86238113357582      -10.43595825962432        3.42011304713613
H           -2.42540146240586       -8.40744744134398        0.45648555690288
H           -2.51664614237678       -7.80642833173137        2.12150465410823
H           -3.55823445231717       -9.12501913092904        1.59747969379968
H           -0.63733349546750       -7.23553474198824        1.09771118745634
H            1.64654985647923       -6.45027349027966        0.92819852400466
