89
 energy: -13.102862541472 gnorm: 0.001713213104 xtb: 6.5.0 (97a52f5)
C            3.35992670014946        3.41052166327719        1.49616818566577
C            3.03254847688898       -0.06406087258639       -0.57589996115301
C            1.82653152827085        0.23308307987334       -1.20078805811055
C            3.28644071753052        0.63522097677510       -2.00995009930106
C            6.00712684683642        1.90070168176888        2.44087296903141
C            5.69935301617894        0.84837274744921        1.66600095542359
C            6.38096828863065       -0.38810762416412        1.63619637958891
C            5.94980547830037       -1.41617658785909        0.76844753639101
C            6.60748969742105       -2.61840038862101        0.71840889432057
C            7.71855912689455       -2.86903778633101        1.52206383134251
N            8.39449566709342       -4.17760573966286        1.43460971027208
C            8.94513674697990       -4.43357075218029        0.04390592904909
C            7.45382628080517       -5.32059251788869        1.77009973443118
C            9.57622730618947       -4.32282581055125        2.37952719040281
C            8.15146302246838       -1.86192408989737        2.38552946774995
C            7.50670643393074       -0.65114306296775        2.44787582243112
N            3.95874806748971        1.28417225749571       -3.32588779435096
C            4.96816156378803        0.74451589938251       -2.46446373544963
C            6.05197798266776        1.54158314061273       -2.12440976716595
C            7.28276883225665        0.97154950218174       -1.56224444587664
C            8.01389346614901        1.64401924394173       -0.58032372185045
C            9.16812613308320        1.09511434957337       -0.05659022098191
C            9.60829987203692       -0.13766791958096       -0.49399506677784
I           11.36891926662139       -0.94872044974786        0.27993944686965
C            8.88772538028698       -0.82976366900484       -1.44599613720948
C            7.73289651342585       -0.28580236192847       -1.97308310510125
C            5.83547969266878        2.97254377891821       -2.33267744564794
C            6.77096412634028        4.00241015339121       -2.52490139475037
C            8.25211023165319        3.92622394563164       -2.57041763964319
C            6.01590165176853        5.15318330636437       -2.74845834411647
C            4.67953150306700        4.77008182352066       -2.71689643048442
C            3.53180050879896        5.61012462420338       -2.92685717593556
C            3.57435981163155        6.93485620358489       -3.15125438556747
C            2.41767323147994        7.78263042891928       -3.37168283100473
C            2.59455518207458        9.13605335015862       -3.65997775982008
C            1.51495964167469        9.96198814063724       -3.87830986177126
C            0.21719678622089        9.47934745781299       -3.81488912300829
N           -0.91269226360181       10.39515336829262       -4.06571326125427
C           -0.91550161563075       11.56530603747484       -3.09725806176595
C           -0.86930468748821       10.96512241846853       -5.47221036852378
C           -2.27775292912390        9.73955629089660       -3.92389990501689
C            0.03537870483655        8.13463638133672       -3.52701830503424
C            1.10974410119305        7.30058458071285       -3.30988004368895
N            4.54471474040379        3.42182503484093       -2.47504511351576
B            3.28006190310148        2.45136278758890       -2.24109418201247
F            2.15597487645539        2.93299540551024       -2.90976751423517
F            3.11047527072051        2.65799558740233       -0.83926981020610
H            2.80231758430559        3.21892705253554        0.59535917775588
H            1.40508427252098        1.81038929329907       -7.07042493824301
H           -4.29630941207055        5.85029033827131        8.43877736531618
H            0.84239493447851        0.02961783544400       -0.79163375841975
H            6.60954831273618        2.33141223040726        3.16156242666183
H            4.86147133913326        0.94973208954724        0.99216014185059
H            5.08978136609114       -1.23652645040350        0.14831739132657
H            6.26112096608170       -3.38376663767189        0.04646948504971
H            8.14852102480169       -4.40850854189933       -0.69532532983549
H            9.43086983256130       -5.40537315344314       -0.00668883301971
H            9.67450333067410       -3.66806577926283       -0.21033214049706
H            6.62524497137211       -5.35432443241338        1.06716896777202
H            7.04984264061378       -5.18751269015798        2.77120507785132
H            7.97510333971850       -6.27444430514582        1.72976108948584
H           10.33560291233173       -3.57681379111779        2.15545760348684
H           10.02835825081238       -5.30713450018179        2.27786921249847
H            9.25453724651406       -4.20214677551821        3.41165020174438
H            9.00872239207196       -2.02890161379534        3.01219190537967
H            7.85926347654363        0.11471471337575        3.11555739292750
H            7.64894967635894        2.58649166124256       -0.21188441218288
H            9.73093425202674        1.61821543823492        0.70098682282227
H            9.23807998438348       -1.79602869321265       -1.77360082847073
H            7.17118958753082       -0.82536737510844       -2.71536304036234
H            8.58742260979764        2.91712583272569       -2.80946005367913
H            8.68813206925240        4.21772469220034       -1.61483116780333
H            8.64940418488147        4.59389763354772       -3.33533283534068
H            6.40391994259489        6.13768182658109       -2.94346336167704
H            2.58475465172632        5.10502203269560       -2.91248000169894
H            4.53570283650856        7.41485556296028       -3.17657997788258
H            3.59364376418762        9.53310061099192       -3.71441468835655
H            1.68031384873105       11.00019134873836       -4.10612469747468
H           -0.01063477075892       12.15668711763843       -3.20624793004900
H           -0.96586987367991       11.19883477883774       -2.07499023996443
H           -1.77022408717717       12.21250090208589       -3.27808835325112
H            0.03999101846065       11.54044058743199       -5.62348777789554
H           -1.72141230859007       11.61641327455680       -5.65058795908320
H           -0.88987676901510       10.15679931505329       -6.19895293290553
H           -2.40523208900767        9.34621589778224       -2.91833279371605
H           -2.38578763302401        8.92938465078200       -4.64079801073092
H           -3.06948205579206       10.46160384959362       -4.10851892200585
H           -0.95845976180810        7.72875175275952       -3.47123882721043
H            0.93378881135875        6.26372551082769       -3.08695533176062
