54
 energy: -8.536630921473 gnorm: 0.000659818957 xtb: 6.5.0 (97a52f5)
C            1.31587196140139       -0.19240654190013       -0.19541263825191
C            2.77942064058247       -0.01781787206812       -0.00988663736674
C            3.31480602734974        1.24377740959972        0.10488253203067
C            4.68462559846209        1.44682666859622        0.29674575305029
N            5.21831678458402        2.74646977615834        0.40906125270971
C            4.64007310417351        3.97477204596426       -0.20826855635744
C            6.05899315799301        4.46563602066037       -0.54450590825742
C            6.60552749452607        3.15111067406799        0.03976232099154
C            5.50879942119321        0.32096530659419        0.39280726475613
C            4.99154081288821       -0.93938099111709        0.29329354437195
C            3.61854533043956       -1.16171332572944        0.09103742341815
N            3.01105092206621       -2.38481900434370       -0.01145945109706
C            3.63667941703918       -3.59819121069307        0.09433179783261
C            2.81660550151534       -4.75660607572066       -0.00649490764266
C            1.35179081015679       -4.61965836163277       -0.21356046709857
C            3.37468999917614       -6.00886919324099        0.09548962134972
C            4.74700492071090       -6.18955711466942        0.29205271297052
N            5.30201689130058       -7.48009689274052        0.40257297374056
C            6.70159510568213       -7.86006051256428        0.05482942141436
C            6.18600055966161       -9.17727013799896       -0.55112914484789
C            4.75401007265613       -8.71726181592843       -0.22476556085784
C            5.55102028354635       -5.04991291991224        0.39631999017141
C            5.01286558553053       -3.79817391474232        0.29878515104702
Si           6.14394067090070       -2.36011123368174        0.43005430121211
C            6.99869969763669       -2.35027210734604        2.10032853864593
C            7.35687934340291       -2.35555349109883       -1.00091974139509
H            0.87148079678033        0.67547544603715       -0.68351963467982
H            0.82023163981987       -0.33349916643821        0.76514540442894
H            1.10800466061924       -1.06511515150040       -0.81429220385122
H            2.66560889334865        2.09836368833959        0.05546927014367
H            4.09819118111453        4.58205147995370        0.52774689423397
H            4.01933769458353        3.73906522323350       -1.08139687864796
H            6.36320440755815        5.36006770908854        0.01432418966025
H            6.24681027809551        4.59231709323710       -1.61889654678556
H            7.24524591652864        3.26299395971998        0.92420636809406
H            7.04502921982095        2.47084168584536       -0.69989671917327
H            6.56293420801682        0.45221712573814        0.55798464433494
H            1.06769403968995       -3.57213624652576       -0.30822779668819
H            0.80010338157056       -5.04162964017338        0.62671094143313
H            1.03799011246110       -5.13492165591405       -1.12166549035295
H            2.74012808668489       -6.87358811146816        0.03198834047312
H            7.32548166498414       -7.97065327244838        0.95093170729753
H            7.14547718589297       -7.16620932304240       -0.66984606711984
H            6.50049140910258      -10.07297551957265       -0.00001484543164
H            6.38789260979909       -9.28623206060895       -1.62491566138736
H            4.21839550658355       -9.33855001070300        0.50407439790810
H            4.13593036655115       -8.49078023889669       -1.10221766111151
H            6.60666298620465       -5.16327284442381        0.56514396457962
H            6.25603085560232       -2.34913073534396        2.89251267560036
H            7.61941994281958       -1.46518575553218        2.20105749265072
H            7.62503987833138       -3.23047419178078        2.20853858313854
H            6.81442158997511       -2.36984606553030       -1.94145933932107
H            7.99858531374598       -3.23008312255531       -0.95349948127095
H            7.97634605913556       -1.46445548324879       -0.96741813469649
