71
 energy: -12.194010364781 gnorm: 0.000347108153 xtb: 6.5.0 (97a52f5)
C            7.01379291765362       -1.22684142051272        1.56694107128457
C            6.15866788627298       -1.21726456009614        0.34494951990227
C            4.86419856267743       -0.89919280222101        0.44275852572173
C            3.89078731101181       -0.85041281257283       -0.71014765029387
C            2.73130256540863       -1.80803074091568       -0.40205789489230
C            3.38348104128695        0.59067279350193       -0.85386094081719
N            4.54511398721142       -1.26878694403867       -2.00655119138422
C            3.70879763482150       -1.27666641006033       -3.20768246370836
C            5.90241588492505       -1.58794096356822       -2.09899090816909
C            6.47582334296024       -1.92341803427948       -3.32243005988395
C            7.82318185360132       -2.22874245600528       -3.45955028006062
C            8.65219575615824       -2.21740588097732       -2.30600636141727
C            8.07480087167427       -1.86787092198585       -1.08076611403304
C            6.72984563789450       -1.56140842927440       -0.94814671185019
C           10.04441519133715       -2.50885062527709       -2.43483222616014
C           10.93719257295388       -2.49296782357635       -1.26185509262195
C           12.10581529653444       -1.71148768092464       -1.24828319810719
C           12.93211170392661       -1.69352244361625       -0.14763236878050
C           12.62282701628874       -2.44842157301357        0.96554085847996
Br          13.75899313718131       -2.41572950106494        2.47186466506553
C           11.48315455313293       -3.22677008665165        0.97925702059437
C           10.64848389846317       -3.25298792141597       -0.11498581416959
C           10.54575356880575       -2.80292960690568       -3.73931869714500
C           11.88307581469959       -3.14737114476943       -3.96243041211394
C           12.37936528820821       -3.44048317897641       -5.22266582925997
C           11.50105269301725       -3.39532935345787       -6.33464805726599
C           10.16248636850634       -3.08395696244164       -6.11206232303965
C            9.66042719511002       -2.79546072961650       -4.85033441576175
O            8.31066903942927       -2.51782579126653       -4.72212762882277
N           11.97212438289787       -3.65770422719431       -7.62380199852069
C           11.05794643623040       -3.58706817394870       -8.76469220828946
C           13.42791548973625       -3.93660949700367       -7.91917825147901
C           13.54478288390856       -5.27701014738510       -8.65868408279142
C           13.98458661354575       -2.79205461934779       -8.77597062540906
C           14.24274354382823       -4.02387246657979       -6.65119587382315
C           13.77611322436458       -3.79756662921005       -5.41931733012709
C           14.69212562296816       -3.90885933060873       -4.24762242228136
H            7.82569084574530       -0.50428216217537        1.48062749014359
H            7.44715070184115       -2.21376167420207        1.73084027029935
H            6.44012918442341       -0.96980900048918        2.45769216086567
H            4.46913161180880       -0.65309472643294        1.41209873531908
H            2.25839441031875       -1.55296027620985        0.54532246963281
H            3.09739992392817       -2.83109804287724       -0.33233097867167
H            1.96550906446745       -1.77643771073357       -1.17383591345368
H            2.94248323371932        0.94185712892961        0.07799178314611
H            2.62849412873579        0.67521889628325       -1.63250387426429
H            4.20726472720457        1.25505812285584       -1.10993622659781
H            4.10324991883017       -0.57430597287758       -3.93878722455279
H            2.68511892290142       -0.98903055267662       -2.98699889549762
H            3.69182447609399       -2.27437537170812       -3.64092991281779
H            5.87415389447579       -1.94422743948838       -4.20985890197331
H            8.70457629209562       -1.81851367713596       -0.21413179308098
H           12.33404316780802       -1.10047616407112       -2.10407344277983
H           13.82379584526812       -1.08821354387930       -0.13884148852094
H           11.26026860672782       -3.81322666311763        1.85558022753191
H            9.77399698005362       -3.87990717206495       -0.11146645432559
H           12.54517371672150       -3.19844777749157       -3.12022512392008
H            9.47211181801935       -3.06473212111012       -6.93242089920880
H           10.27667440182848       -4.33689328313200       -8.66039067566401
H           11.57263915222783       -3.76537455147144       -9.70417446769201
H           10.60373746013521       -2.59988263057111       -8.81573713812064
H           13.03432969197106       -5.25568818861132       -9.61891659335053
H           13.10652875796761       -6.07513530321106       -8.06173018447558
H           14.58836012924503       -5.52765109203209       -8.84422642088924
H           13.86946536295891       -1.84274835720430       -8.25521806243979
H           13.46679578297553       -2.71698941881543       -9.72981994042893
H           15.04396752659917       -2.93979838544092       -8.98110258462647
H           15.27988547859806       -4.28335457665389       -6.76651411250096
H           15.68528682584994       -4.24339854327948       -4.54804707768493
H           14.80665065105351       -2.94546082441319       -3.75027346978569
H           14.31143051876497       -4.62796984722141       -3.52185350818886
