30
 energy: -4.811216672261 gnorm: 0.000561612880 xtb: 6.5.0 (97a52f5)
C           -0.14184931397346        1.31116867959254       -0.56433576424419
C            3.22242670013606       -0.82052470158372        0.79909166680795
C            2.41023432886626       -1.87059782790801        0.39419327094562
C            4.05303168382455       -2.19536403425387        0.62376667722116
C            6.34548359864044        0.69610258098639       -0.43938698798962
N            5.35913616686603       -3.05593351600916        0.67277580925732
C            6.70310367766057       -2.62656394547667        0.86318680843022
C            7.46619382491834       -3.19990770696004        1.77439393220799
C            8.91562472842909       -2.89751569137368        1.88433323684255
C            6.81383923291352       -4.14389691406255        2.66801361516218
C            7.42428602073144       -4.98876418258464        3.58361636382259
C            6.38726352693820       -5.69493039735756        4.20004380923448
C            5.22517660275755       -5.23833629552800        3.63090862774714
N            5.43844189706034       -4.28667650129012        2.67626677303767
B            4.27012771106484       -3.41496134586761        1.95146661078580
F            3.92369558408936       -2.54105984433621        3.00316272359313
F            3.26877011013298       -4.34346841833612        1.66512109098751
H           -0.95516342742885        1.98556020321960       -0.71768982819993
H           -0.06189967520956        1.07375702400003        0.47349224631239
H           -0.30425916343946        0.41792784809407       -1.12611818250937
H            1.33922842338930       -1.82088862353497        0.21477192725739
H            5.45164854188586        0.25084681780564       -0.06090313114147
H            6.92316638868876       -0.04166351361551       -0.95117220301181
H            6.91599406452086        1.10017552763347        0.36749303263886
H            9.19135803083545       -2.07004405318246        1.22969061760710
H            9.51518572933536       -3.76310168567101        1.60099344113919
H            9.17791160886149       -2.61699544511663        2.90494202489315
H            8.48035845499827       -5.08474533705455        3.77557883042763
H            6.48277361265563       -6.44344427799778        4.97119537889300
H            4.23006134025203       -5.57319440546629        3.89073759546533
