67
 energy: -12.377687513296 gnorm: 0.000518807726 xtb: 6.5.0 (97a52f5)
C           -3.29456172203069       -2.60627034510428        0.59505438967516
C           -2.66799996027988       -1.26740068931766        0.47666746206960
C           -3.33200157070068       -0.04245675775409        0.61390231412592
C           -2.41344882941172        0.99971013667844        0.45100363573022
C           -2.66188165695272        2.44893821667035        0.55476678098268
N           -1.21787488992776        0.41748163632585        0.22583275571317
C           -1.30791307277087       -0.98153251286124        0.21598577569125
C           -0.20077666499443       -1.83832728601966        0.00768422105625
C           -0.34416116755309       -3.30509182871418       -0.00574668715328
C           -0.01141738087780       -4.19410319957806        1.05170590449584
C            0.53177706767474       -3.75750029822210        2.35981539218991
C           -0.30951202423414       -5.50065122504934        0.61824907037399
C           -0.19370225320446       -6.75611882705340        1.25216395158521
C            0.24326446400428       -6.87157833554943        2.66645267142539
C           -0.48521684334525       -7.87986713727412        0.48589599886625
C           -0.39696115766942       -9.28829838488632        0.75769506351273
C            0.07563897469707       -9.95761597063224        1.99439609654874
C           -0.82947824161425       -9.95654455196662       -0.37469376218889
C           -1.17977810007244       -9.01868140407917       -1.36891065358416
C           -1.68001477826613       -9.27814735939141       -2.73189926105859
N           -0.96223638477175       -7.81223393467706       -0.83914577461419
B           -1.20537794334871       -6.51051601870166       -1.60543858630903
F           -2.55591771143567       -6.39731775176107       -1.90750514559327
F           -0.42298697985490       -6.50024404834619       -2.75301045112957
N           -0.79035735305475       -5.34947054028128       -0.70048443714893
C           -0.84150332258376       -4.08369471509283       -1.09748796364837
C           -1.24440053739784       -3.60816052732899       -2.43193049737550
C            1.04902361768946       -1.20479155249558       -0.19253769252121
C            2.32804878392147       -1.73810633011383       -0.47439488714043
C            2.68994478527709       -3.16831659451357       -0.62349678487603
C            3.21397799741336       -0.65961470144811       -0.58418973297319
C            2.51249992203987        0.53419698202734       -0.38607097784632
C            3.03181984270873        1.91189502016687       -0.45659701688112
N            1.22830745561369        0.18545369917591       -0.16663032314709
B            0.09247671039199        1.19352958710761        0.04574238835572
F           -0.00989831227590        2.01014214270695       -1.07265751041498
F            0.34684662644716        1.93342668502421        1.19299093506867
H           -4.31350777763071       -2.52951863867514        0.97507177796805
H           -2.73112612821349       -3.24054051299793        1.27956834823587
H           -3.33575760786958       -3.10551405966565       -0.37296914536492
H           -4.38089531600084        0.07997723409861        0.82201080726404
H           -3.56389889648738        2.73164374058116        0.01206536398768
H           -1.82376053361511        3.00686069287886        0.13671570319872
H           -2.77933982083427        2.74723874629241        1.59647659254872
H            0.86484311161407       -2.72027266810049        2.31318944671782
H            1.38974374016362       -4.36219769112184        2.65348492134687
H           -0.22716917520696       -3.82034245200033        3.13978036328848
H           -0.08443932938665       -6.01520151112636        3.25292007329728
H            1.32891518193103       -6.94328762063081        2.73668609005301
H           -0.19115339952129       -7.74727130587544        3.14508528652460
H            1.00924398687673       -9.51945559201092        2.34758437567846
H            0.26173219125946      -11.01681432809053        1.81387749924625
H           -0.66888213125547       -9.88635570042938        2.78764332794314
H           -0.87999632732333      -11.02583899975797       -0.48614462625732
H           -1.78779746706360      -10.34677339646849       -2.91849393555807
H           -0.99435434140395       -8.86716658348467       -3.47318316570060
H           -2.65102466966585       -8.80424561154049       -2.87705809968206
H           -1.98919613995867       -4.27682481999438       -2.86386902511304
H           -0.38738807978391       -3.58132095177011       -3.10472113202270
H           -1.67054028785890       -2.60607889002526       -2.38131211308768
H            1.97619507601353       -3.68742921518315       -1.26332649244058
H            2.70465993262066       -3.66896742103551        0.34452089705443
H            3.67780980547556       -3.27710133895902       -1.07171710263157
H            4.26634235847515       -0.73475099807888       -0.79719545219364
H            3.99748633162322        1.99300479653488        0.04204432557936
H            2.33961159229213        2.60162145488727        0.02639405447311
H            3.15214673148909        2.22647236408374       -1.49298562620390
