55
 energy: -11.201666268311 gnorm: 0.000906968073 xtb: 6.5.0 (97a52f5)
C           -3.37279409466109       -2.65676431930144        0.27592749665361
C           -2.73298037939979       -1.32104241878285        0.19892908096809
C           -3.40220336073683       -0.10448223467227        0.25412387383156
C           -2.46320413510233        0.93764175774591        0.17865521295049
C           -2.70255742390466        2.39183848880304        0.24230782675175
N           -1.26157973245654        0.34944907278017        0.07487340968216
C           -1.34970918809396       -1.03250642844613        0.05884769594772
C           -0.21561927262153       -1.89076949717715       -0.01355608055588
C           -0.34607403231304       -3.33427688912110        0.04003130798061
C            0.11838707039283       -4.25568493579723        1.03058331246877
C            0.74963090031673       -3.92090191348760        2.30856025473327
C            0.70988907116364       -2.61524031895102        2.79503104324113
C            1.30899101780440       -2.30785415637974        3.98406235281709
C            1.93542458998999       -3.32189304955577        4.66933234944972
C            1.92335371671290       -4.58489017999791        4.13122647842570
N            1.35198674893615       -4.91093917684699        2.98384190067692
N           -0.13050743773026       -5.51150916318510        0.65158471730874
C           -0.74491907368092       -5.44039519019855       -0.56358008469878
C           -1.17816844858695       -6.48407861976776       -1.37817671018257
C           -1.74397449093829       -6.18036563972015       -2.59228225699095
C           -1.87456595719792       -4.85526407850845       -3.00443179468408
C           -1.44584689975282       -3.83842141832712       -2.19772728778571
N           -0.89921755300507       -4.13271535772577       -0.98068155843036
C            1.05133271309651       -1.24290830397039       -0.09250472873789
C            2.36319845896352       -1.76683354480420       -0.23719682075241
C            2.75453751103467       -3.19168318502578       -0.35973285067607
C            3.23917191255857       -0.68823438609283       -0.24212886642140
C            2.49947887313545        0.50017187998653       -0.12567380161124
C            2.99515030760404        1.88927403042902       -0.10138600736465
N            1.21139808479395        0.13213600876993       -0.05023995302327
B            0.05591836923134        1.13312349707574        0.05787722311388
F            0.07433223708419        1.97776774851126       -1.04435232614525
F            0.17877713832539        1.84197469340534        1.24612191445655
H           -4.34669424071947       -2.59521832218554        0.76213178964986
H           -2.75969009734691       -3.35255230417937        0.84843174341538
H           -3.52194760447692       -3.07468627041435       -0.71934743083865
H           -4.46610139568498        0.02047376228919        0.36111520717171
H           -3.76769240662136        2.62033692389774        0.20056964077109
H           -2.21015584192332        2.89380535077796       -0.59100205096267
H           -2.29740947924430        2.80457419662631        1.16649230707685
H            0.20472785389584       -1.84986535964327        2.23604172520306
H            1.29187422442743       -1.30211052558033        4.37131819706576
H            2.42365817864280       -3.12868693147039        5.61038159724664
H            2.41002405892455       -5.38745951565721        4.66452399316864
H           -1.05953492845244       -7.50074683852352       -1.04931393429041
H           -2.08418172115851       -6.97428905428171       -3.23657968522487
H           -2.31163196874466       -4.63267693091868       -3.96358474207560
H           -1.52335986318979       -2.80756684773258       -2.49254504082597
H            2.02537257736089       -3.74831889271717       -0.94854285972889
H            2.82865473958935       -3.65903211621479        0.62190699665420
H            3.72191336758609       -3.28967508792859       -0.85246201357784
H            4.31042673739284       -0.75161045705815       -0.32733511692699
H            4.08474695924565        1.92198053782080       -0.09439032358461
H            2.62988118903511        2.40655894363424        0.78613733746015
H            2.63961242050005        2.43524296779784       -0.97550366024389
