76
 energy: -13.107841857563 gnorm: 0.000903932238 xtb: 6.5.0 (97a52f5)
C           -3.48619173942435       -2.44636763287617        0.67297137428433
C           -2.81680803918259       -1.15771925909038        0.37414354545353
C           -3.45486546154311        0.07173599965297        0.33942566081158
C           -2.50774345123934        1.07123163091040        0.05999671801490
C           -2.72434011423216        2.52667752360973       -0.03529528813089
N           -1.33325700560532        0.44308375242816       -0.07063771027538
C           -1.43809902555439       -0.93173732106105        0.08439543042469
C           -0.32558027299103       -1.81108647718597        0.01217814364605
C           -0.46864396765076       -3.26180655429568        0.17490252308537
C           -1.31304198500577       -4.00589064230494       -0.68043405207915
F           -1.97568967523615       -3.39780330018858       -1.67680741452667
C           -1.45504505640861       -5.36479361017498       -0.51825324325115
F           -2.28394081086723       -6.04748692555752       -1.31947440645781
C           -0.74290823122823       -6.04478035331666        0.49338890067779
N           -0.90960657918216       -7.38120766835415        0.62724428646441
C           -0.29574745028039       -8.24667736924064        1.62442379866358
C           -0.24459188598166       -9.70443627203000        1.18384944147866
N            0.56098409924368      -10.52370510917492        2.05667107980568
P            0.35341528306679      -12.13258268120326        1.46096018105971
O            0.80388082500493      -12.20515694970613        0.00213213350546
O            1.20263811405185      -13.14140238620370        2.40265128759013
C            2.56012689694586      -12.72961425228370        2.52236157562652
C            3.17945201935762      -13.35587459788351        3.77535127533941
C            3.36417520581980      -13.07665414847775        1.26572798116929
O           -1.22122305233249      -12.46440911788785        1.61670379857787
C           -1.44985316743093      -13.86491741150190        1.53122569984441
C           -2.80764128041889      -14.20614242405397        2.15355070561925
C           -1.35122755468405      -14.36061373969525        0.08486247479880
C            0.11868530064329       -5.31035074714552        1.33784817429928
F            0.84971796729257       -5.93248425509112        2.27063871146013
C            0.23988827192295       -3.94723771768267        1.18856392407088
F            1.03297677298552       -3.27133436796396        2.03462462132487
C            0.93627620036709       -1.20339743368452       -0.22076473513480
C            2.23579149005283       -1.75312412445376       -0.43210348420573
C            2.62786779052745       -3.18279545364794       -0.45322734299900
C            3.10632069782050       -0.69408743499561       -0.63323947752237
C            2.38275702686997        0.50930722052767       -0.58141520288444
C            2.88872322429759        1.88105059009188       -0.77312650844953
N            1.11005123868004        0.16699441870214       -0.34897115954408
B           -0.02149887823717        1.19260756181416       -0.30010106079195
F           -0.08296084208034        1.86650992261376       -1.50995420383138
F            0.19693254987746        2.06869768268475        0.75194683296625
H           -4.45413274843939       -2.28374941337684        1.14762990632944
H           -2.88254164473730       -3.05156591303833        1.34927848809201
H           -3.65219054390698       -3.01481286953106       -0.24263486209445
H           -4.50346922264338        0.23959532915957        0.51686219401304
H           -3.50610791804709        2.75801816153588       -0.75875514725215
H           -1.80763948215931        3.02391091604777       -0.35429994918857
H           -3.01387568822937        2.93991863425773        0.93093002121256
H           -1.56111499834683       -7.86716394625334        0.01435821365589
H           -0.84095648768722       -8.14074905124795        2.56782299724685
H            0.71977377621117       -7.88915685350128        1.82072783359406
H            0.18951244691738       -9.77350172032398        0.17305443136356
H           -1.26175871965207      -10.12474696878582        1.10877951410988
H            0.17782737311444      -10.54299312056804        2.99258143764944
H            2.53525987557414      -11.62766609942290        2.64900347430643
H            3.18019433378489      -14.44122043142207        3.68816316109168
H            2.60048087165692      -13.10014364049975        4.66214501913579
H            4.20738730893073      -13.02617089572500        3.92612979278537
H            3.36735648547571      -14.15425919869636        1.11032683324851
H            4.39857257598529      -12.74249331878156        1.34417972312222
H            2.92125333499870      -12.62032594401362        0.38099089842073
H           -0.64934681405131      -14.33856833259674        2.13895703226887
H           -3.60559957069976      -13.71392441656300        1.60061519215400
H           -2.85960959446446      -13.85484880153449        3.18319994061126
H           -2.99837749926686      -15.27896489819515        2.14455181762434
H           -2.11347446514723      -13.88004155418822       -0.52618027808875
H           -1.49081968100967      -15.43952641948612        0.01760018104493
H           -0.38304947872044      -14.11066038823436       -0.34823967812161
H            1.89264755592989       -3.78080235967553       -0.99159814667320
H            2.71280457987531       -3.57309681010541        0.56141501762096
H            3.59052397448711       -3.31729940392807       -0.94694324145743
H            4.16344639465089       -0.77800991532844       -0.81935458596437
H            3.69908993369162        2.09881028955643       -0.07729274871020
H            2.09037855455977        2.60422313593039       -0.60231660397825
H            3.25890973329283        2.01919765385673       -1.78912286917810
