44
 energy: -5.738722080684 gnorm: 0.001324313246 xtb: 6.5.0 (97a52f5)
C           -0.02153641427815        2.97831275005588       -2.29140956419323
C           -1.35874073749085        2.98096814916489       -2.21889743134701
C           -2.07382454532558        2.46838378052301       -1.14456866307166
N           -3.44136398292541        2.44699938674731       -1.01009194723638
C           -3.98989790222242        1.95970180383647        0.01827049064222
C           -4.97559266821032        1.59868782106660        0.82840961342754
C           -6.28866796334765        1.69801721009493        0.74398530974891
C           -7.08625321077757        2.19987095086572       -0.19410361597304
C           -6.69425870391318        2.74412571088595       -1.31357807733716
C           -7.32846407865352        3.29090118753989       -2.35718817940930
C           -6.73464467414561        3.81355277325209       -3.44322394119756
C           -5.46242735063105        3.92279113262215       -3.76006416927285
C           -4.36497813573267        3.54318244610299       -3.10557424422761
C           -4.34790368117161        2.93846550458377       -1.93110329196092
N            6.23047977159704        2.85952176525812        6.08945486562424
C            3.65494226294126       -5.57528634187117        1.10090138156127
C            4.26887320405064       -4.89885768169347        0.17059295578105
C            5.09695722950869       -3.87291924512319        0.37809941993279
C            5.45528057290576       -3.29118795729874        1.50153410077596
C            5.06318802643430       -3.55787200495229        2.77070205764328
C            5.51578250064185       -2.89066997177107        3.88265411588571
C            6.38569625513860       -1.82155479385080        3.88526620231155
C            6.63782276057353       -0.79464960551734        3.00019839282973
C            5.71655483617111       -0.19737481224555        2.17618614684759
C            4.40416583969834       -0.50111021880827        2.15961803127122
H            3.02640625363021       -6.35673338385797        0.76856410129321
H            2.46179107429021        6.76005193098161       -2.18254309542510
H            0.60245858076411        2.59210697388600       -1.54113837359087
H           -1.90286526974336        3.40734780276955       -3.04298249392874
H           -1.50762099618072        2.04628324599946       -0.33216667617624
H          -10.45388597050219       -0.56113402639942        5.56546526878749
H          -14.92589262496621        1.85569984746873        0.91747848451127
H          -11.92231070817335        4.57934734196100       -5.07549699289329
H           -6.23496342107197        6.66459303729833       -8.72593716363568
H            0.35230637315922        7.08639040354660       -9.23210130530125
H            2.47807600893679        4.70734207563977       -5.90632055983351
H            4.90110189702454        3.32373979181162       -1.67867116902569
H            4.12472063609116       -5.14719505969622       -0.71389427958522
H            1.74884516163355       -9.72902458257546       -1.73649417448691
H            4.37592563345237       -4.37337787259217        2.91526647927145
H            5.22181789177030       -3.26823097623173        4.84946070923618
H            7.63646307653266       -0.38611364421498        3.01592139433852
H            6.05910179826714        0.59548610076421        1.52907644725552
H            3.69500528584010       -0.03833949839907        1.53861388265276
