58
 energy: -11.461556360961 gnorm: 0.000768516855 xtb: 6.5.0 (97a52f5)
C           -3.30651028325765       -2.63388781469172        0.52845197846078
C           -2.67698222848054       -1.29491747508112        0.42765047360567
C           -3.33998474535678       -0.07453470606862        0.54515514054424
C           -2.41274810755747        0.96847329942679        0.39700443432930
C           -2.66247189827358        2.41845574510798        0.49158203787601
N           -1.21708628263262        0.38474527393929        0.19758193364388
C           -1.30710901875934       -1.00896464399501        0.19181362357383
C           -0.19953440819822       -1.86960388820242        0.00339816146421
C           -0.34439651265134       -3.34395069534892        0.00088343443169
C            0.00686043507064       -4.10632116004795        1.14860144129749
C            0.50458380296279       -3.46937489350209        2.30526461930441
C            0.85875423830577       -4.18444615372474        3.40957152160643
C            0.73671714215568       -5.57609617175973        3.41088153996687
C            0.25276351936581       -6.22876298446141        2.31706581338750
C           -0.14488695575134       -5.52459681342208        1.14840795184167
C           -0.67223203193306       -6.18201991149584        0.01432275455152
C           -0.90464124405181       -7.65604404908318        0.04365624559457
C           -0.96765101423713       -5.44042117207099       -1.15150720824637
C           -1.41325049827904       -6.05831678143311       -2.35122227483654
C           -1.71234217355080       -5.32558014160819       -3.46038006236981
C           -1.58140747025404       -3.93478651420515       -3.44787263951518
C           -1.14245676450834       -3.30084138785555       -2.32459213455750
C           -0.81972117232375       -4.02174015101080       -1.15525492381039
C            1.05429882920418       -1.23931660545343       -0.18045449813865
C            2.34193875427003       -1.78232614799229       -0.42787607433338
C            2.69997597101606       -3.21630778878583       -0.54901610400568
C            3.22823209339188       -0.71191531632216       -0.53458528786941
C            2.52172469333073        0.48891462091947       -0.36491953016323
C            3.04405819041491        1.86545391449762       -0.44332956721671
N            1.23624533065328        0.14530442658336       -0.16670298709376
B            0.09817016662439        1.15744795389046        0.02598563544264
F            0.00974306006689        1.96601300163996       -1.10093507599096
F            0.34136978437388        1.90503002541759        1.17227305810206
H           -4.32528462031800       -2.56032261815872        0.90989785306195
H           -2.74442703065794       -3.27906857079375        1.20409372095717
H           -3.34755796005682       -3.11889724551330       -0.44702977627798
H           -4.39305216229583        0.05100553893241        0.72938441534091
H           -3.55695386961128        2.69950147460580       -0.06496239423587
H           -1.81850244249781        2.97565334973533        0.08399110926931
H           -2.79521078862664        2.72097944093344        1.53057387123244
H            0.60821470100963       -2.39862535295252        2.30221084329973
H            1.24022141019804       -3.67953808872285        4.28185229801611
H            1.03190716208460       -6.13412413266873        4.28443339841118
H            0.19452066593645       -7.30194421657356        2.33563263452833
H           -1.16108966818057       -8.00186482197558        1.04442967935009
H           -0.01928802539557       -8.19700788004153       -0.29159975609139
H           -1.74292895846828       -7.94296699136246       -0.59023143567331
H           -1.49526900504875       -7.12909071970020       -2.39755107098375
H           -2.04830815926084       -5.81943506491738       -4.35753580199036
H           -1.82345239942000       -3.36611656165280       -4.33069212607936
H           -1.03596203780225       -2.23039650511711       -2.31826856959253
H            2.01856891303382       -3.73305782830176       -1.22523181824587
H            2.65489146245709       -3.71264862049691        0.42058897088420
H            3.71069297839998       -3.33649858565922       -0.93997784413528
H            4.28436462646894       -0.79117155020391       -0.72684095320322
H            4.01605961128789        1.94524053721345        0.04456532779679
H            2.35838363817578        2.55815120664776        0.04582838749053
H            3.15378875742122        2.17896891297607       -1.48189439400125
