55
 energy: -11.018498610558 gnorm: 0.000753184443 xtb: 6.5.0 (97a52f5)
C           -3.31623589989455       -2.59455538507797        0.50991795345804
C           -2.67791076460723       -1.25997132428116        0.40704549630008
C           -3.33533536507769       -0.03584742620495        0.51625973650875
C           -2.40271335565102        1.00220234055563        0.36824897229032
C           -2.64773585729276        2.45345079442163        0.45259919692593
N           -1.20901853817705        0.41177660957883        0.17723087176793
C           -1.30524537428589       -0.98155463204809        0.17747610550944
C           -0.19765716393311       -1.84667230317943        0.00797574695840
C           -0.34663801633568       -3.31958546839515        0.00742229566836
C           -0.84335495862414       -3.99663539755162       -1.14486706715394
C           -1.19629731740182       -3.29289571797927       -2.31532518363721
C           -1.66808405105224       -3.94689466273755       -3.41556206545314
C           -1.81031757938417       -5.33879400998419       -3.40539906349988
C           -1.47822872365685       -6.05799098339383       -2.29688192593987
C           -0.98476763902403       -5.41409482931055       -1.13543311416605
C           -0.63652961969516       -6.13541146945737        0.00771383707775
C           -0.14705241113604       -5.49998974839490        1.15010440950239
C            0.20435421927409       -6.23088972679007        2.31170343390232
C            0.67705219396495       -5.59466411733922        3.41988042938812
C            0.82324494429119       -4.20315136144131        3.42929971401555
C            0.49479452666250       -3.46663552398822        2.32899303419972
C            0.00410239528820       -4.08350835298245        1.15912416295128
C            1.05983983126161       -1.22060815396998       -0.16685075356925
C            2.34800203380255       -1.76726645010829       -0.40411619979414
C            2.70608764822890       -3.20223989011016       -0.51053765972658
C            3.23907463210919       -0.69982663073649       -0.49972348397401
C            2.53483662827006        0.50313782940106       -0.33757648481567
C            3.06653434178561        1.87669312608991       -0.40080978181183
N            1.24654650894570        0.16338544858922       -0.15147132186101
B            0.11120105311856        1.18010605517442        0.02817288451364
F            0.04272721119863        1.99362051777891       -1.09640992618901
F            0.34059543146896        1.92235325871772        1.18034486188535
H           -4.32666048074961       -2.51561687262699        0.91181818297078
H           -2.74614440532840       -3.24952722481408        1.16906827969629
H           -3.38152844062439       -3.07107389705783       -0.46838357302048
H           -4.38858706098428        0.09501984498760        0.69559596368970
H           -3.50029148785104        2.74308029854370       -0.16199107775978
H           -1.77435475527061        3.00549063828437        0.10466702569062
H           -2.84814260015184        2.75331801411085        1.48129571086490
H           -1.08995157902448       -2.22255877280715       -2.32768961435470
H           -1.93453166314906       -3.39049654393472       -4.29909227932948
H           -2.18402245415817       -5.84207288580861       -4.28196828346532
H           -1.58648050149176       -7.12875883545765       -2.29172797944797
H           -0.74741781557098       -7.20433643227304        0.00811512628849
H            0.09078531845639       -7.30111179790293        2.30686657537379
H            0.94017975378578       -6.16363732692343        4.29645617008806
H            1.19824794363469       -3.71298798624652        4.31266243210757
H            0.60947168292035       -2.39713046724943        2.34117044323153
H            1.99908777011835       -3.73474212322103       -1.14688030797602
H            2.70436231808126       -3.67700830101464        0.47081882337721
H            3.69964408241146       -3.32702776546779       -0.94182018727878
H            4.29792458762381       -0.78228275155255       -0.67479012252939
H            3.99306866792786        1.96483311156893        0.16683327708783
H            2.34476728705624        2.58078987669766        0.01386462029747
H            3.26598286790110        2.16789578531323       -1.43218831683084
