51
 energy: -9.899664815940 gnorm: 0.000904791344 xtb: 6.5.0 (97a52f5)
C           -3.35222990416861       -2.67236880862116       -0.17524715405578
C           -2.70039849553347       -1.34010865152929       -0.16898526595955
C           -3.37657174905207       -0.12877069873162       -0.22747885106336
C           -2.44439048779966        0.92081604321295       -0.15744002112947
C           -2.70128775080657        2.37348254195598       -0.15241790773307
N           -1.23853470326157        0.34269064049646       -0.06463314649855
C           -1.30916732558289       -1.04578691819065       -0.08901630135327
C           -0.17063739685489       -1.89045082551692        0.00180953040661
C           -0.28285544419283       -3.34519677772449       -0.06515371850479
C           -0.76776788398101       -4.08001979931738       -1.13882466327027
C           -0.78237026719729       -5.45736082716797       -0.93259118551703
C           -0.31161103078799       -5.85218724741443        0.31140702776357
C           -0.20686537888028       -7.19082521963868        0.81382967033270
C           -0.60065368755927       -8.30876405012536        0.05161226161343
C           -0.49377063616439       -9.57488778843659        0.54687728838122
C            0.01632146367619       -9.80677027447476        1.84506244726826
O            0.13343322721530      -11.05364270314073        2.36642215679475
C            0.41141388103284       -8.68544341533783        2.60842976347343
C            0.30153286468091       -7.42374467643083        2.10582259895458
S            0.15530036333500       -4.44651403349530        1.21891738054769
C            1.07990994910254       -1.23505192722127        0.15836525903654
C            2.41196583625859       -1.73682015008734        0.20176741792249
C            2.85533716371775       -3.14710178141747        0.08880996537265
C            3.26049408054427       -0.64752717878428        0.34799669568534
C            2.49459236968036        0.52982582810576        0.37685528173270
C            2.97760598703763        1.92110079458132        0.44723156432900
N            1.21619344542703        0.14642553519256        0.24536357563606
B            0.05651323488833        1.14027840783213        0.11949721157406
F            0.26103436200189        1.94456402269782       -0.99382860792728
F           -0.03037657537181        1.89285393303059        1.28310842183285
H           -4.38146351274754       -2.60294244485194        0.17774574163815
H           -2.82704863931398       -3.36923657675460        0.47789516254674
H           -3.37228834197037       -3.09175470034129       -1.18103342968670
H           -4.44455123360834       -0.01136736645343       -0.29426844864809
H           -3.76406572427280        2.58911059775437       -0.26412678772194
H           -2.16490488527732        2.85728679515860       -0.96900968227054
H           -2.35665121825205        2.81733803734006        0.78182397730834
H           -1.08937261703725       -3.61221465748040       -2.05612731186576
H           -1.13117937493396       -6.15220730027826       -1.67950009789975
H           -0.99251291235032       -8.15748070282425       -0.93825220677325
H           -0.79813516706086      -10.41610850154701       -0.04919713123599
H           -0.17869411225626      -11.72096444846565        1.72427670553990
H            0.80076759610306       -8.85438473330048        3.59625653487189
H            0.60504493040566       -6.57881611651753        2.69836449225503
H            2.73716126287173       -3.66803530385723        1.03898515261306
H            3.90596782282869       -3.20532366009296       -0.19657463308334
H            2.27648886615614       -3.67906610484863       -0.66630145833371
H            4.33469188183827       -0.69312585510920        0.40112833767655
H            3.80230265323838        2.01535668905084        1.15415690877612
H            2.17412193649069        2.58418739627399        0.76915572518857
H            3.32141127774474        2.25868496283888       -0.53066624654674
