68
 energy: -13.607307199615 gnorm: 0.000824011172 xtb: 6.5.0 (97a52f5)
C           -3.15259235695610       -2.96524030488982       -0.09475094725977
C           -2.62565658541820       -1.57969621312321       -0.04953066384323
C           -3.40426095088646       -0.43194141602122       -0.02740796357697
C           -2.56356187339467        0.69373603207748        0.04095864670534
C           -2.94512731309014        2.11411451043259        0.14473281016342
N           -1.31265869162674        0.22060734902416        0.06482863457724
C           -1.26262650868666       -1.16855673195960       -0.01248978722721
C           -0.05428374598444       -1.90770500494207       -0.00830562619436
C           -0.04293659529035       -3.36761946701744       -0.13022442570668
C           -0.41204756652615       -4.09871470849413       -1.25394377541767
C           -0.31725053009130       -5.47506606600157       -1.09939315344638
C            0.12718644609212       -5.87887810741044        0.15769274302895
C            0.32333686815413       -7.20564181880506        0.61989792254692
C            0.77985634413096       -7.43875958882045        1.94281844631520
C            0.97889703443120       -8.68884497235146        2.41567552114575
C            0.73737178074392       -9.85253780163176        1.58996630906610
O            0.96880919095718      -11.02225099437703        2.12681943783697
S            0.67547552335052      -12.23761377799773        1.13631803334758
O           -0.71763839191696      -12.31948529635931        0.58145007150182
O            1.74592313159666      -12.32690145695378        0.08325671745324
C            0.89642899684722      -13.70583247864913        2.16806564443879
C            1.53985920303065      -14.78193067806217        1.60357664143262
C            1.74975060117264      -15.93298868599754        2.33328563725172
C            1.31549082601765      -16.00793702596905        3.64216479145684
N            1.53661100792456      -17.22404833591549        4.42670516677976
O            2.14005389217278      -18.16788045020942        3.90061703866160
O            1.11152148437719      -17.26441699795816        5.58851708417439
C            0.67129306363140      -14.92810815764301        4.20809401590825
C            0.45324902025131      -13.77634604109313        3.47758198274474
N           -0.24231625460233      -12.66265959986815        4.13760648263637
O            0.28018376600874      -12.15449372778012        5.13800980352392
O           -1.33359200967120      -12.29065096838270        3.68800820775796
C            0.26329759746330       -9.59385732222473        0.24468473268580
C            0.07171807039483       -8.33359157223999       -0.20478258286832
S            0.42367508644713       -4.46801414963442        1.12954697546443
C            1.13759592627965       -1.15224376876376        0.11444271002548
C            2.50946929311886       -1.53381400167888        0.10263762086287
C            3.06626623552083       -2.90102792297257       -0.03555777119165
C            3.26202090320581       -0.37736667448281        0.24583516178185
C            2.39632299673049        0.72764697346074        0.33196384282307
C            2.74771167536309        2.15608958436020        0.43229861047456
N            1.15638341225265        0.23472455576431        0.23686655086874
B           -0.08819644441720        1.11998005091909        0.22016555230667
F           -0.01995624214548        1.98902799656975       -0.85453871569180
F           -0.17438293704092        1.80943480922968        1.41710168044625
H           -4.18459404258893       -3.00041231516834        0.25545747946196
H           -2.56609642384295       -3.62716758327726        0.54257648212451
H           -3.13102451345269       -3.35629115596394       -1.11203749780030
H           -4.48056405302434       -0.40567629155799       -0.04211928576460
H           -3.83112394027055        2.32783220660519       -0.45370753176709
H           -2.13153588123311        2.74870149669671       -0.20964577569348
H           -3.15352344876686        2.38071039164536        1.18123223871469
H           -0.72561750930238       -3.62487313847835       -2.17156232849155
H           -0.56668228991730       -6.16532685362716       -1.88901994584357
H            0.96806073898622       -6.58931383969708        2.57564986447931
H            1.32225436147829       -8.85450241887440        3.42131373009011
H            1.88738099289543      -14.70982217761652        0.58483350135117
H            2.25350251439666      -16.78087459737473        1.90010198335401
H            0.34133593771902      -14.98497104036153        5.23131985944390
H            0.05267009509081      -10.43416562305723       -0.39217450457556
H           -0.28303622345380       -8.17846441131078       -1.20788577254069
H            2.54797525462777       -3.45594443735374       -0.81780479235647
H            2.97062249727940       -3.45356785762357        0.89936106160153
H            4.12393305530039       -2.86713073844499       -0.29828796576844
H            4.33738811763806       -0.32889252897862        0.26940487433881
H            3.59308356191306        2.30611574336916        1.10426487074092
H            1.90006093399986        2.72541959987585        0.81627999995865
H            3.00759588463786        2.55772799544253       -0.54739636083157
