52
 energy: -10.362543811887 gnorm: 0.000778146698 xtb: 6.5.0 (97a52f5)
C            7.04488612653972        0.30172403498928        0.07599827377985
C            5.83397260707616        1.13335680845091       -0.12537844340956
C            4.63389671816533        0.98743269239433        0.55055157034461
C            3.72830366922035        1.96993708147584        0.10120681521939
C            2.33321989153875        2.17533382861868        0.53149253066793
N            4.38096728144396        2.68593056574551       -0.82221305861352
C            5.68597063052500        2.23937622301472       -1.01463849999460
C            6.58472074200963        2.82751029318894       -1.92498688514816
C            7.96762931867542        2.31942309319386       -2.09640606243257
C            8.28493838401832        1.44666443328764       -3.14101891053849
C            9.57164243925158        0.97521570610112       -3.29591116056684
C           10.56199724961470        1.36196921569288       -2.41733842014507
Br          12.32284511097606        0.71193846226725       -2.63526101163754
C           10.26855283080777        2.22209856454156       -1.37983772547615
C            8.98488702695811        2.69889278858962       -1.21643888110321
C            6.09625112172343        3.91951990817685       -2.67255225744042
C            6.73813511279911        4.74957509340522       -3.66455757252706
C            8.13369757404279        4.63311451728648       -4.15215366844308
C            5.81946606766945        5.67238867346289       -4.09293932265544
C            4.59041642918142        5.46526044773680       -3.39250571503907
C            3.37348346124078        6.15727375015594       -3.49835275245152
C            3.15183840436582        7.21226516936363       -4.33602072378270
C            1.91877468745673        7.89325933084869       -4.43762125583724
C            0.72969108664391        7.63607211239145       -3.73077773055916
C           -0.21466327221982        8.54711582382419       -4.15877336337139
C            0.38020054399089        9.35998634567144       -5.11954162040249
N            1.66272446567727        8.96770833534142       -5.28816821208139
N            4.82036505449648        4.40843656619386       -2.55716809268993
B            3.76381780907745        3.86108901670370       -1.59036267936853
F            2.66659197172259        3.41267209837785       -2.31266830206879
F            3.40310823301474        4.85654628766087       -0.69240377171778
H            7.81409089483822        0.85974546970611        0.60980068148748
H            7.45984272424403       -0.02161634349695       -0.87876778473175
H            6.81399620196091       -0.59092223654464        0.65749784136696
H            4.42190217623986        0.24020513565049        1.29600414572763
H            1.71018413065810        1.32741725358997        0.24693647738606
H            1.92152588970504        3.06995173722621        0.06380180394252
H            2.27260255367119        2.29893955300157        1.61278709987769
H            7.50839941335071        1.14527429379306       -3.82220068390550
H            9.81778696035325        0.30205891858690       -4.10070829353602
H           11.05397788008525        2.51366575413673       -0.70200177989197
H            8.75140150016856        3.37066848411994       -0.40888722130416
H            8.26646021252004        3.72211978754891       -4.73569943953182
H            8.83662152054221        4.60914904153581       -3.31925916221968
H            8.39897524317298        5.47871405140218       -4.78719282018138
H            5.99852850237944        6.42768065722379       -4.83746456844311
H            2.57193090777675        5.81447496776056       -2.87064450104229
H            3.95597603165346        7.55174413018717       -4.96190393317239
H            0.58189035379595        6.86700052051904       -2.99129244597316
H           -1.23323639000889        8.61703359453509       -3.81126886578829
H           -0.09340590989459       10.17168699694014       -5.65041131981116
H            2.35262042507377        9.36669096443035       -5.92474832075855
