43
 energy: -8.168221536357 gnorm: 0.000884567925 xtb: 6.5.0 (97a52f5)
C           -3.35392195262083       -2.60542348973243        0.11287428174214
C           -2.70204234152128       -1.27392280153453        0.09217562401383
C           -3.36716524978507       -0.04760164662283        0.11421760013171
C           -2.42448803000329        0.98978048481819        0.08334793693853
C           -2.66689461368813        2.44431359014560        0.11325949115361
N           -1.21476402844149        0.39900951192523        0.04219549988669
C           -1.30903125805410       -0.99832079461995        0.03423535309925
C           -0.19214868699210       -1.85567300907676       -0.00894032278872
C           -0.34058456434512       -3.33104632417420       -0.02025914767781
C           -0.69575028575640       -4.00639774045683       -1.19180423618063
C           -0.83546091272427       -5.38047913049517       -1.19705040583189
C           -0.62272494528744       -6.10130913830291       -0.03960697292927
I           -0.83921266600740       -8.17369443929347       -0.05252494911295
C           -0.26923815640140       -5.45416056089070        1.12692589602487
C           -0.12908934291690       -4.08025278267769        1.14085678719124
C            1.07339539956546       -1.23696107443999       -0.03760020174486
C            2.38414456567323       -1.78226899535989       -0.10035209962254
C            2.76050097781612       -3.21581163988497       -0.13984409163281
C            3.27981665249379       -0.71197374264377       -0.09416424643940
C            2.56163663859741        0.49086082366775       -0.04098090647684
C            3.08835639404789        1.86850334464212       -0.03268755814667
N            1.25824892141062        0.15107459251398       -0.01464167166089
B            0.11176641938122        1.16887179758863        0.02972171712020
F            0.16521630195092        1.96906409572750       -1.10394986798812
F            0.21424704353984        1.92145678840092        1.19239623345404
H           -4.40999650806127       -2.52030943588641        0.37017410432787
H           -2.88413836031283       -3.25800242461190        0.84861884967387
H           -3.28544122777615       -3.08703308067299       -0.86234137372298
H           -4.43480235627694        0.08263401847502        0.15493066818099
H           -3.72970905652118        2.67092639006202        0.02917707568667
H           -2.14586914992369        2.93328926778080       -0.71004330429321
H           -2.29681952257324        2.87364021593812        1.04425073342017
H           -0.85700210588403       -3.43915156885171       -2.09191675014570
H           -1.11076512632540       -5.90183191477636       -2.10073891792475
H           -0.10456888324974       -6.03258429390198        2.02273808348697
H            0.14261559694663       -3.56972391553788        2.04828315229995
H            2.14444464566995       -3.76204764314670       -0.85396180600803
H            2.63613683491672       -3.67695602522631        0.83983312036893
H            3.80195114328994       -3.33842710774399       -0.43777003682023
H            4.35230714682299       -0.79560455149547       -0.12818953854483
H            4.17355799780547        1.87750733617647        0.06997243548187
H            2.66103118995420        2.43323883445538        0.79600976404471
H            2.82637546156723        2.38272817974380       -0.95733600203573
