63
 energy: -11.201063780679 gnorm: 0.000806291761 xtb: 6.5.0 (97a52f5)
C            7.21888212500554        0.18489450182811        0.48799552926297
C            6.07777992463944       -0.14338494481272       -0.40020861754019
C            4.87158366602380       -0.71664211951643        0.00657169423920
C            4.03963895230293       -0.88110046596449       -1.10883205150560
C            2.67331637478630       -1.43415530816064       -1.13975303485213
N            4.73135332102871       -0.41635978896727       -2.17042991930995
C            6.00422350918281        0.04456639732619       -1.80657312309486
C            6.94560845094262        0.54691601794247       -2.72664929492788
C            8.29312413548144        0.99414262974547       -2.29698948005788
C            9.32205934521384        0.07058475410352       -2.09021242326537
C           10.57492359389749        0.49140398577384       -1.68843187430669
C           10.82497536154417        1.83516956993742       -1.48637087499305
I           12.72501460538307        2.46679342019687       -0.87157926860713
C            9.82030895939009        2.76208592509033       -1.68782142243915
C            8.56448721016422        2.34962157510114       -2.08892206069275
C            6.54215758933940        0.60267500451636       -4.07530372527181
C            7.23109267897506        1.03739604604703       -5.23941301474664
C            8.62019524776875        1.55022279638340       -5.31862947022513
C            6.34854091639349        0.91603996531969       -6.31442968593675
C            5.12716292284651        0.40683713540530       -5.85363004993871
C            3.91750406820794        0.11361838436390       -6.64373456978510
N            5.26958955630533        0.22354666318384       -4.52416130129018
B            4.18614717447867       -0.36274165823406       -3.60568059755609
O            3.85460017406193       -1.74039961262970       -4.06481285518435
C            4.91316608406559       -2.62065584599595       -4.41024321490967
C            5.63837113725087       -3.13814390891046       -3.17551043777174
C            4.38845051557161       -3.76359619272695       -5.27252647889116
O            2.98213984671973        0.51459343157473       -3.63399749539166
C            3.03729394002588        1.75996859246249       -2.95500152186779
C            3.84563473980737        2.78911997545409       -3.73370310859934
C            1.62831108675885        2.26243218494311       -2.65891710567672
H            8.06341852022553       -0.47783847640570        0.29815803937154
H            6.94168490828475        0.08163731447261        1.53776064430075
H            7.55109882089347        1.21138498507488        0.33064597570204
H            4.61525808113996       -0.98356029283629        1.01735259988370
H            1.99237925067679       -0.82533814778156       -0.54437572600606
H            2.65517358408134       -2.45125054809149       -0.74735083343341
H            2.29938895876942       -1.45948338824689       -2.16373495890312
H            9.12341535542359       -0.97523782473408       -2.24943005300072
H           11.36840258551136       -0.22194581480855       -1.52734346084412
H           10.02966880913822        3.80841565333380       -1.52761616290096
H            7.77861364610183        3.06835915046710       -2.24491708843204
H            9.31245038455171        0.88235288559920       -4.80515834199574
H            8.69721167962715        2.53651601123412       -4.86001983153572
H            8.94800567348725        1.63648509269427       -6.35528732171027
H            6.56925625488799        1.17122416100915       -7.33656740265991
H            4.11384493245076       -0.66157935238676       -7.38494920238978
H            3.56616939995104        1.00468100186736       -7.16470044774669
H            3.11620271121000       -0.23579465866913       -5.99187404924705
H            5.61570623712308       -2.01814935270794       -5.01111072484441
H            4.94826732548871       -3.68608983693350       -2.53524601200538
H            6.05250335526666       -2.32059970311020       -2.58818455425799
H            6.45514582163831       -3.80975773508278       -3.44185509286444
H            3.66846357628163       -4.35726208885631       -4.71048824236895
H            5.19182422221814       -4.42647301028520       -5.59577950596340
H            3.87951532240413       -3.38324045023631       -6.15820547876469
H            3.54730361041743        1.55376744562871       -1.99837838108823
H            3.39361355221771        2.96353040568175       -4.70920818519822
H            4.86555704976503        2.44762198402509       -3.90054160829638
H            3.89187734951585        3.74378309884211       -3.20874062926038
H            1.09062591965103        2.44039933091631       -3.58947464863025
H            1.64340576114720        3.19589209486997       -2.09523130845999
H            1.06188012688538        1.52598095466375       -2.08886715132383
