65
 energy: -12.525420066876 gnorm: 0.000862323157 xtb: 6.5.0 (97a52f5)
C            2.41041645365712        0.10310457187216        1.79063196543719
C            4.18838307847710       -1.64389053207351       -0.88593642293326
C            5.48521885824166       -1.63243430900769       -0.48625771450504
C            5.01535735190770       -0.37976924773856       -1.24119770708483
C            7.34002118362878        1.89108746661763        0.60921029789747
N            5.02546871599668       -0.28386702750940       -2.69577878283177
C            6.20075124717470       -0.06191186156929       -2.21487837676672
C            7.34401864226905        0.22047071616786       -3.02199951468759
C            8.67471344293660        0.30541937161027       -2.39862547383725
C            9.10624056623474       -0.68384783484510       -1.51241496947729
C           10.33455651178832       -0.58489761128289       -0.88855874132199
C           11.14454848483229        0.50518918784237       -1.12915268050609
I           12.99156536802123        0.65296845291556       -0.18147735313238
C           10.73201968970519        1.50113541844850       -1.98943624302693
C            9.50506232651789        1.40720025749874       -2.61678475877195
C            7.09340560026035        0.46420152259051       -4.37174170316555
C            7.95252992907256        0.63869471727743       -5.51189657768214
C            9.43027613909618        0.52366743853220       -5.56406801779736
C            7.14374129521391        0.89958883263910       -6.59267695029532
C            5.78660551712243        0.87569060215273       -6.18073049577121
C            4.59131971595509        1.09229724361998       -7.01660301027095
N            5.79664502115968        0.59348133606324       -4.88102722076082
B            4.56996601182578        0.45174172264777       -3.96236499856466
O            3.51690834886985       -0.32396970651209       -4.65890741051546
C            3.76591216627915       -1.62172839422016       -5.07199499092629
C            4.96422796221879       -2.27233212576120       -4.78741527875414
C            5.19222166161488       -3.55706934426089       -5.22018127218800
C            4.22117909602714       -4.22312534754134       -5.94606128880919
Cl           4.50542775689639       -5.84601537298942       -6.49345744921850
C            3.02226429137781       -3.59481067578218       -6.23391995379838
C            2.79554501803316       -2.30789551828312       -5.80140359173953
O            4.10863040563635        1.80554594139440       -3.58356342965230
C            3.06028514856642        1.90181940796419       -2.68706312355273
C            2.82921215687268        3.10543620089282       -2.02086281971400
C            1.80476185972333        3.21639347853866       -1.10834496848189
C            0.98959109814322        2.12976758835249       -0.84507619507595
Cl          -0.26814235430810        2.25452061794674        0.34447899110873
C            1.19696982939841        0.93343949786909       -1.50783224991297
C            2.22087088907382        0.82262594412503       -2.41860661191248
H            1.94298191674748       -0.62432264905880        2.41659660181253
H            2.94601144505461       -0.38666410177437        1.00710031025260
H            1.66789661122898        0.74377298650081        1.36794951224060
H            6.15937078529667       -2.29235345081912        0.04547405338894
H            6.44206020596393        1.32026682583776        0.69665409565171
H            7.10548630845821        2.87573368953747        0.26946955705230
H            7.99209326417441        1.41946336336849       -0.09150117946190
H            8.46788479676008       -1.52893953537115       -1.32297119762405
H           10.66963178055953       -1.35297694063408       -0.20852712068845
H           11.37339412529336        2.35227987165582       -2.15900694096108
H            9.16408486155922        2.19782525439658       -3.26201957978709
H            9.80293153346183       -0.12155185810940       -4.76852693489429
H            9.90232175863146        1.50113589730142       -5.46451075286964
H            9.75156000980702        0.09371028571200       -6.51316265929577
H            7.48365374221658        1.07445931613967       -7.59891255355029
H            4.43705622292080        0.25513504989392       -7.69741110001738
H            4.68721694004725        2.00303575323914       -7.60779273464257
H            3.70423247320788        1.18591861952032       -6.38972911187489
H            5.70791022487608       -1.74985701673752       -4.21837521905837
H            6.11944823095076       -4.05821328318570       -5.00031642223889
H            2.27568328233003       -4.12674227872745       -6.79856860204969
H            1.86858682224092       -1.80901783291032       -6.02090876534543
H            3.47528176881741        3.93952527487457       -2.22888526393526
H            1.62913631956056        4.14090185358105       -0.58522953886389
H            0.55459233787049        0.09630775148119       -1.29381198412458
H            2.39610565046150       -0.10127545328428       -2.93703942795086
