69
 energy: -13.632159471939 gnorm: 0.000723342879 xtb: 6.5.0 (97a52f5)
C            0.46926800174520        0.77420387259294        3.70385144631219
C            5.17450043324669        1.59026562701022        0.01529665663896
C            6.50943170173425        1.81873022265343        0.08767494269431
C            6.03713220463467        0.45154117984335        0.61276493910246
C            8.73266110618929       -2.08101380116069       -0.11670639698740
N            5.55942459491495        0.25182032050658        1.97841306981850
C            6.84668332382461        0.26301719799213        1.94097478767183
C            7.69583538284100        0.09236729335881        3.07581816354728
C            9.14857150277975       -0.05178334765201        2.88378995828378
C            9.84522243881968        0.83253365779250        2.05719952711105
C           11.19933552321028        0.67395929642617        1.83737097410864
C           11.87146352309011       -0.37375337868611        2.42755211811641
I           13.90052690897526       -0.61183744757714        2.08977104468866
C           11.20379045356910       -1.26889930525704        3.23425581339162
C            9.84984907259726       -1.11423498958863        3.45875971921564
C            7.06577379923581        0.08969280049192        4.31914121610069
C            7.56079660223790        0.12757033167107        5.66931985620637
C            8.97233515485433        0.17412023272148        6.12202445258830
C            6.46713958979085        0.15570384590333        6.50212959972723
C            5.28323408958203        0.16570718716984        5.72196628047120
C            3.88742055670218        0.19741050697641        6.19447426834653
N            5.67430496376150        0.14409280178873        4.45211859887113
B            4.71793409190037        0.11465461160729        3.25238598388996
O            3.75253086699206        1.23406295575255        3.33385496757820
C            4.14003596071104        2.55115662684956        3.26842206021589
C            3.19012502564612        3.53919487900833        2.99784051585559
C            3.55834111593259        4.85826455785766        2.91402777582424
C            4.87785777073339        5.23124976271305        3.10134384849124
N            5.26611577470814        6.63632192577332        3.01094820131799
O            4.39109200889352        7.48144564192368        2.76858682772895
O            6.45784981620940        6.93578399641579        3.18050557322393
C            5.82716559518646        4.26437127220058        3.37917640954055
C            5.46337416058080        2.94623038558336        3.46385712356503
O            4.01095477773336       -1.18541147508213        3.26862058250659
C            2.96741138622970       -1.38035327647555        2.40101022875985
C            2.05832412041863       -2.41679461532136        2.63037045354326
C            0.99208978374858       -2.60876282874652        1.78838691049609
C            0.80500295237103       -1.78141214305444        0.69476641631529
N           -0.33309297661352       -1.98732401342729       -0.19705353539496
O           -1.13566259946386       -2.89744213195863        0.06219066977812
O           -0.45810321146820       -1.24522690308135       -1.18334052588855
C            1.70649030173190       -0.76127973925012        0.44798475933400
C            2.77364312884578       -0.56580821930043        1.28523677382642
H            0.25277722304769        0.45875588065920        4.70060331568709
H            1.52113799880232        0.92050143826623        3.59694633811955
H            0.14990248156385        0.02501639375831        3.01402230806873
H            7.17475397054516        2.63600378301818       -0.16372488267032
H            7.78716743432940       -2.47710560238606        0.18160657427875
H            9.15078800565540       -1.51703362147036        0.68684327136546
H            8.60337331357000       -1.44820313105302       -0.96674298981127
H            9.31169997685373        1.64318507989307        1.59274411455133
H           11.73884043646574        1.36065703028874        1.20268694191489
H           11.74580031315417       -2.09046769988247        3.67771058839829
H            9.31400185653205       -1.83035840130701        4.05697134966775
H            9.60327506281336        0.67831930792424        5.39021317677245
H            9.36372675553699       -0.83026238041824        6.28332837968745
H            9.05939864568685        0.72066479087571        7.06140526105424
H            6.50182038860775        0.18865469033761        7.57753618373967
H            3.66643544138048       -0.67079170048180        6.81541638128759
H            3.20537106078535        0.18837750509900        5.34394937898599
H            3.69299932347247        1.09868258179728        6.77602772594533
H            2.16736047881780        3.24282800768976        2.84842256373406
H            2.82895646453793        5.62114681012237        2.70031252632162
H            6.84948078640205        4.56661149761571        3.53094115901235
H            6.19015756534744        2.19499621807376        3.69835580711321
H            2.20817555879793       -3.05092088421860        3.48610437891301
H            0.28524210728494       -3.40165425248764        1.96568858102981
H            1.55687595621036       -0.13082303829786       -0.41213944479181
H            3.49597997669622        0.20215713740754        1.08312842612604
