53
 energy: -10.504991169957 gnorm: 0.000279886881 xtb: 6.5.0 (97a52f5)
C            3.12054082596068       -2.29029663435497        1.94255492390288
C            3.65787691272915       -1.09143542099742        1.25460836768429
C            2.89551485198154       -0.04030969289459        0.74645313988506
C            3.74516819785362        0.90646085574300        0.15858913541923
C            3.35447964178903        2.18446666386585       -0.46652791432678
N            5.00181143010992        0.43439866693546        0.30803144094874
C            5.01839421363355       -0.80130985925274        0.97016892295231
C            6.18911879649248       -1.53544959321346        1.24172010767686
C            6.14725366368558       -2.82426403427778        1.97681288448374
C            6.33756537528183       -2.86062249663008        3.36135196124112
C            6.30220383081253       -4.06000202899431        4.04541011630409
C            6.07689547170874       -5.23961343798201        3.36411682327040
I            6.02834118910769       -7.04984034099980        4.40519336780360
C            5.88556974989589       -5.22411587808552        1.99669303783931
C            5.92016371975640       -4.02896267995783        1.30488146658798
C            7.40242619345750       -0.99018636231742        0.77913738074529
C            8.72661079240559       -1.49868032421459        0.84063920630078
C            9.16841199729930       -2.77929882932478        1.44423471053813
C            9.55752865352577       -0.56538559143236        0.22203211736123
C            8.78664846853533        0.51479046118445       -0.22828500463424
C            9.27275858980677        1.72850890686971       -0.91196054799461
N            7.50960043577585        0.24029785888178        0.11573966709755
B            6.29934068688287        1.18059595608237       -0.06989289756554
O            6.22406202681000        1.62144214254463       -1.49345415121423
C            6.34653034635826        2.98923684077634       -1.37601704652048
C            6.35155533999592        3.93439741211396       -2.38730433760828
C            6.48890288384594        5.27458267523623       -2.06965610315781
C            6.62097489831800        5.67787369673560       -0.75492439899807
C            6.61875124349184        4.74980896883029        0.27167686981085
C            6.48280504673415        3.40454362847855       -0.02411765423699
O            6.46013194389729        2.34395196070001        0.85289811321412
H            3.28293507422604       -3.18724689858530        1.34452352261257
H            2.04841153962485       -2.19475687568590        2.11690879142893
H            3.60343710086418       -2.43444801279650        2.90925103799652
H            1.82332464225724        0.03625738847322        0.80254355624267
H            2.27162167398942        2.25900628001472       -0.56973048284620
H            3.79510325751043        2.27474269151012       -1.45929919644590
H            3.69733578646558        3.02679691513861        0.13429854918581
H            6.51253304465189       -1.93821924726850        3.88729091066295
H            6.45024693939134       -4.08804421057830        5.11386707192229
H            5.71018059824321       -6.15420630092770        1.47866883634254
H            5.77395673354307       -4.01184541836993        0.23889046021101
H            8.65283351284677       -3.62388575776644        0.98660349025986
H            8.96358197836772       -2.79608571452341        2.51486674714867
H           10.23978859156872       -2.92870711031801        1.30699324530283
H           10.62419989657455       -0.65722115713893        0.11067002597901
H           10.32232003978464        1.63102331807976       -1.19053795878736
H            9.17216844971446        2.60058413072915       -0.26583196583035
H            8.69858168239005        1.91154748291087       -1.81999178507419
H            6.24863032653437        3.61140726168072       -3.40755204835117
H            6.49304493173268        6.01024036144829       -2.85697680252712
H            6.72736135293722        6.72519272054133       -0.52491114188888
H            6.72159542886614        5.05308466342208        1.29801143163955
