58
 energy: -10.652059382065 gnorm: 0.000678803841 xtb: 6.5.0 (97a52f5)
C           -3.51673071573939       -2.47990913713121       -0.02400952877920
C           -2.77263413063347       -1.20129473699425        0.08319497290133
C           -3.35381186227294        0.05338341357515        0.19936160872392
C           -2.33903217502184        1.02637618192818        0.26177448939735
C           -2.48782142874421        2.49119682290204        0.35784011841262
N           -1.17769430066943        0.36096310787201        0.18858324538731
C           -1.36022431530964       -1.01522277794671        0.09176617318116
C           -0.29534450271332       -1.94341774859505       -0.01593090910042
C           -0.53327822614213       -3.39956538901349       -0.11825891213131
C           -1.02498367201551       -4.13686508628029        0.97395223140183
C           -1.24690075850466       -5.48002903333656        0.87856832370786
C           -0.99471146024665       -6.18551348918558       -0.31976857199017
N           -1.21427888261988       -7.54755462690103       -0.41667489076306
C           -1.77037800354564       -8.37024600451887        0.68394378601089
C           -0.65883651132985       -9.17372629867354        1.36687976644280
C            0.07264044440535      -10.05850849425430        0.34076242989195
C            0.55344702865714       -9.22508029916275       -0.86128586826544
C           -0.60169115367708       -8.41156709848235       -1.45764683600097
C           -0.49938235194399       -5.43834992460152       -1.41215746608575
C           -0.27672671357822       -4.09580130485612       -1.31300902624706
C            1.01066029422992       -1.39480024653290       -0.03164253512956
C            2.29132919093267       -2.01712933588513       -0.08217407168283
C            2.59068644053129       -3.46860208084231       -0.14361039507600
C            3.24120148098529       -1.00564183757826       -0.06811863895683
C            2.58734339054846        0.23789110775268        0.01477400382251
C            3.19197956845527        1.58295304770841        0.06246949030385
N            1.27427196708143       -0.03034869182218        0.03869150664282
B            0.19283154076117        1.05165265022175        0.16198765397233
F            0.26005389274841        1.89354564355844       -0.94247410442176
F            0.37666550968913        1.75007071397505        1.34998066660776
H           -4.54886275123696       -2.30625105282850       -0.32980726048852
H           -3.53543506827321       -3.00095955880632        0.93335427909882
H           -3.05963525630349       -3.13848911066650       -0.76277587320160
H           -4.41138046982749        0.25318941726304        0.22306242132462
H           -3.53454974894823        2.77745965117059        0.46353484069517
H           -2.08900939452196        2.97443327406379       -0.53435223458527
H           -1.93927287341133        2.87456669701314        1.21842831768709
H           -1.21018992954529       -3.61992970133233        1.89969836856871
H           -1.59076445520020       -6.01033930902820        1.74673247424631
H           -2.50822737483846       -9.05122270275393        0.24772854763956
H           -2.33149795065363       -7.75159417665189        1.38884764114464
H           -1.06236913742767       -9.77669396673322        2.19151780568117
H            0.05612618446534       -8.48036754912606        1.82467459394895
H           -0.60370225847960      -10.84761946463787       -0.00926047301902
H            0.91619072871499      -10.58185359612105        0.81173085450978
H            1.01524062774580       -9.86528520115776       -1.62527014206605
H            1.34161298609440       -8.53724830005443       -0.53258890934474
H           -1.37935414278326       -9.08107471772472       -1.83841394325488
H           -0.27281805459386       -7.82180134236334       -2.31582330841134
H           -0.31847353854785       -5.92386194419151       -2.35252399689986
H            0.08827091711809       -3.54205126159584       -2.16073812754002
H            1.92077434929890       -4.03469539875888        0.50352164925629
H            3.61210448705505       -3.66987052553840        0.18031100160202
H            2.48200088753471       -3.84575221275558       -1.16046424453147
H            4.30777141404251       -1.14866161303899       -0.09795589608059
H            4.27853453785650        1.52682389059535        0.13318271074287
H            2.82102633037520        2.13664584530183        0.92525333080388
H            2.93550936997727        2.14917488355618       -0.83314313970185
