56
 energy: -10.356546167446 gnorm: 0.000895550255 xtb: 6.5.0 (97a52f5)
C           -3.20657532841083       -2.86733241484184        0.10316006818202
C           -2.62591599058283       -1.50633211421827       -0.00097837461772
C           -3.36147500674892       -0.33199026810932       -0.07238610048677
C           -2.47845090328295        0.76081381946090       -0.13315403133490
C           -2.81754769263931        2.19554446091165       -0.16234188035807
N           -1.24184565237951        0.24474508537926       -0.09358890143212
C           -1.24758890988629       -1.14533893127330       -0.03381757210995
C           -0.07039884758347       -1.93145499190642        0.03149535255042
C           -0.11908809104543       -3.40747131416070        0.07473215291343
C            0.30413433992954       -4.11659400633981        1.21327694002271
C            0.24631053611727       -5.47895873382620        1.26034072524173
C           -0.24024133811921       -6.23236695495599        0.16859664102092
N           -0.32152325419336       -7.61279236210566        0.22620435936900
C           -0.68573258474843       -8.47128749963756       -0.91536804876652
C           -2.08417801425574       -9.04344755686395       -0.69625433215999
O           -2.14599992781682       -9.77996391772448        0.52128662163292
C           -1.77396292295183       -8.99242492617495        1.64892139420911
C           -0.37819511520826       -8.38818760220750        1.48292067528543
C           -0.65225741795043       -5.51495766160197       -0.97682249475940
C           -0.59545492331994       -4.15234558735592       -1.01915197502839
C            1.15486062471176       -1.22017183143783        0.05397669679571
C            2.50665764434456       -1.67089222327912        0.03951167713449
C            2.99555557131194       -3.07069207113021       -0.00157484578130
C            3.31699915386903       -0.54460581444459        0.05311363612243
C            2.50659552614234        0.60488534855542        0.05875188137741
C            2.93620479753733        2.01448261576529        0.00650252716071
N            1.23916680457914        0.16858557643135        0.04270091374233
B            0.02767239557637        1.10406675944288       -0.05149097917407
F            0.11449549353560        1.84964037561553       -1.22036280269440
F           -0.00872842193957        1.92034202675411        1.07200906549527
H           -4.23307356699006       -2.82614026752138        0.46827756177649
H           -2.63477438280827       -3.48537748926700        0.79540475481620
H           -3.21824679209579       -3.36158053651628       -0.86825330293977
H           -4.43583201983431       -0.26472612452722       -0.06407617536775
H           -3.69039285681906        2.38002832438347       -0.78823018706613
H           -1.98389399118654        2.77332334110783       -0.56105585356655
H           -3.03078455784036        2.56213524226711        0.84138963599748
H            0.66987165620449       -3.55930449288413        2.05835935890854
H            0.61213417763398       -5.98592356462652        2.13381098475603
H            0.04234950521435       -9.28691283615216       -0.96416337906297
H           -0.59740711302780       -7.93302598866270       -1.86260215655250
H           -2.38867476442672       -9.71286176861897       -1.51108761917457
H           -2.82751898252540       -8.24018341520729       -0.63777972903444
H           -1.83914302454293       -9.63322461886300        2.53773154557990
H           -2.52590902822747       -8.20311626484655        1.76331196340215
H            0.37439264801541       -9.18042328584835        1.43088310782231
H           -0.11721632552390       -7.76476921841625        2.34111754134122
H           -1.05287781966377       -6.04509644343708       -1.82067326255899
H           -0.91252283373689       -3.62268335355257       -1.90088678711860
H            2.39862651192542       -3.67372006398032       -0.68589022319717
H            2.95109905067253       -3.52862715348813        0.98649731813713
H            4.03074945415351       -3.11232004436689       -0.34123383264715
H            4.39340739868043       -0.54779928592069        0.04010556035681
H            3.85968147349424        2.16508876912563        0.56494539733979
H            2.16956398780920        2.65991906196777        0.43441634966417
H            3.10226965085346        2.32833419312654       -1.02354756116340
