47
 energy: -9.341338489428 gnorm: 0.000626122028 xtb: 6.5.0 (97a52f5)
C           -3.40362671272125       -2.56339433517121        0.29969587307912
C           -2.72202888519795       -1.25535920827180        0.14440205669880
C           -3.37108839794638       -0.02394863880007        0.10446596926785
C           -2.41516991775733        0.99683647098431        0.00225637071599
C           -2.64367888717093        2.45319329886889       -0.01466009694966
N           -1.21724628696015        0.38762148961802       -0.01618444651939
C           -1.32561069880783       -1.00314139573116        0.04127426891833
C           -0.20687507893824       -1.87095950764298        0.04648449577341
C           -0.34825918574031       -3.33816478664103        0.01956003775084
C           -1.02235937848182       -3.94447273774305       -1.05876718182677
C           -1.15256669390166       -5.28882342942155       -1.10882268055563
C           -0.60518799421672       -6.06120878030735       -0.06813800821821
C           -0.69750361863071       -7.45496074392841       -0.05125126961821
C           -0.13698336896028       -8.13011282098516        0.99092937397107
C            0.49850952970422       -7.41334936871442        1.98720412396534
N            0.61503209578948       -6.10388318792629        2.02034597403595
C            0.06491680515183       -5.40314377596333        0.99411876438159
N            0.18411530738908       -4.05107511089281        1.02006838099218
C            1.06535418028241       -1.25233524150286        0.06297891030759
C            2.37797328121777       -1.79730195432339        0.04274798199142
C            2.75604011402545       -3.23022074232691        0.01743423905017
C            3.27171063074093       -0.72919768927181        0.03311532269671
C            2.55056778655943        0.47370106142556        0.03554565753026
C            3.08233582227898        1.84737326457181       -0.02643588571501
N            1.25062527772998        0.13108831503891        0.04169317868189
B            0.11071793080272        1.15060226845851       -0.04085914290079
F            0.21098788761099        1.85496313845882       -1.23266099765274
F            0.17376403381116        1.99893104363051        1.05610052757935
H           -4.35078503491153       -2.44687568142131        0.82698361394675
H           -2.79200159537675       -3.25948204638712        0.87358390881820
H           -3.61470465867175       -3.01091536951680       -0.67151582326831
H           -4.43534586026831        0.12407352747340        0.16872255391044
H           -3.47380674978506        2.71287751561463       -0.67173228002024
H           -1.75237857325598        2.97114972448393       -0.37001012683092
H           -2.86906527224104        2.82135621392423        0.98625298064841
H           -1.41297188845351       -3.32400626527403       -1.84652885580624
H           -1.65797980214539       -5.77111527672765       -1.92737096769774
H           -1.20091659668724       -7.97413977304739       -0.84838709782731
H           -0.18765879289864       -9.20545770291333        1.03812377158091
H            0.94221969042461       -7.94981334845199        2.81202555230024
H            2.25954014624343       -3.74851376181899       -0.80308469649921
H            2.46997971764946       -3.71991123945693        0.94817496944971
H            3.83178885735386       -3.35232851201156       -0.11062742133257
H            4.34478984741642       -0.81111474012513        0.01229363220064
H            3.93685758002493        1.96832008420511        0.63953925448274
H            2.31555615252139        2.56372232645649        0.26968592595716
H            3.39940725539821        2.09420742950417       -1.03973069144679
