55
 energy: -10.165724530062 gnorm: 0.000791489941 xtb: 6.5.0 (97a52f5)
C           -0.11895296598213       -0.51396498670834        1.80496573674869
C            3.18353666725438       -0.60059385463994       -1.79253558555182
C            2.31316277960598        0.52990362538719       -1.87007254106895
C            3.85430334057118        0.70925701047691       -2.39866848573253
C            5.88931539287222       -0.48937597401365        0.65979195167575
N            5.32560899681474        0.64745990646006       -2.87294225039865
C            6.68158370763571        0.53818096249750       -2.64920574972129
C            7.52275844919752        0.54632787493268       -3.68468435111927
C            8.97702194123612        0.59864199169372       -3.44180790781280
C            9.77646227574516        1.56737044536380       -4.05431125275945
C           11.12669564295015        1.63190082043679       -3.79869210376899
C           11.70893179149533        0.74014470409944       -2.92018715801131
C           10.93362589847552       -0.21254067231865       -2.28951892051361
C            9.58245269332421       -0.28023977952961       -2.54014757299575
C            6.93138942403449        0.59381820994412       -5.02195978830085
C            7.57361505943191        0.38423950581164       -6.25320405109215
C            8.98287767354494        0.00994461294262       -6.53117234697694
C            6.58871259162674        0.55036546204704       -7.22488002313159
C            5.40333022158872        0.81274169381627       -6.55197381149577
C            4.11399364549440        1.04072360676001       -7.14710197296568
C            3.85160506991417        1.01238782015398       -8.46508858517864
C            2.55109911843399        1.24383762721772       -9.05815983909536
C            2.41057492900609        1.21614845247634      -10.44947188905407
C            1.19540591746935        1.43664691608715      -11.04639420387361
C            0.05745630866411        1.69552059255643      -10.27656863763345
O           -1.18106215423800        1.92441349920515      -10.84407531051930
C            0.19445689944623        1.72038632905655       -8.88595788106012
C            1.40996917450142        1.49971849301118       -8.29052146751767
N            5.58009662638571        0.82397053334134       -5.18687422569308
B            4.29047026103321        0.85535301072290       -4.18119430396749
F            3.50419718415753       -0.20592213293372       -4.65903803549206
F            3.71779332050865        2.11041354663646       -4.43142108065703
H           -1.14468170606247       -0.23018124488285        1.71963423514317
H            0.09526944020056       -1.30126129400919        1.11645318242492
H            0.50443190406972        0.32720547239723        1.59600738696479
H            1.27067201153155        0.56554048436042       -1.56369002536661
H            5.11798781627431       -0.50707559722094       -0.07840706233608
H            6.44607477346572        0.41728213043024        0.57086297549544
H            6.53892957830978       -1.32437877936297        0.51627970408831
H            9.31540996920410        2.27934213740229       -4.71673464746328
H           11.73017486675544        2.38284476392486       -4.28158014561253
H           12.76681838502205        0.79194115565637       -2.72160350830826
H           11.38729837094443       -0.90253925951348       -1.59711603034999
H            8.97527801644367       -1.01962991140995       -2.04723970632079
H            9.41569485420680       -0.54472674717892       -5.69892524859822
H            9.59413861850575        0.89380845135943       -6.71282940065309
H            9.04633316458647       -0.62462831999223       -7.41550043571319
H            6.72677090648979        0.46589218704677       -8.28868851066792
H            3.32115345436724        1.25086953168604       -6.45484694193616
H            4.66139237402812        0.80486890291070       -9.14060314821700
H            3.27730193025892        1.01879734069067      -11.05661024830463
H            1.10845975926289        1.41231279035896      -12.11771176094138
H           -1.12294720246613        1.87831335846184      -11.81700534415333
H           -0.68060287629644        1.91802691188857       -8.29272526432959
H            1.48233374138283        1.52282558502737       -7.21832631767490
