33
 energy: -6.062461515843 gnorm: 0.000701029650 xtb: 6.5.0 (97a52f5)
C           -3.32095505281252       -2.57457717715755       -0.00526431153166
C           -2.70793788197321       -1.22546621753802        0.01191952955976
C           -3.37771215716196       -0.00547857543160        0.02894044794431
C           -2.43673995678395        1.04150380530238        0.04320714354612
C           -2.68749528816091        2.49455116132416        0.06437318276109
N           -1.22369522459490        0.46063654292598        0.03407040031407
C           -1.31392806333974       -0.93865231933397        0.01570446171875
C           -0.21317383755141       -1.77768067101794        0.01165442586328
C            1.04589155369314       -1.20231483830339        0.02028856037425
C            2.34833192837744       -1.78109814131924        0.02171006534331
C            2.68475137194224       -3.22461284341711        0.01773436784550
C            3.26252402738325       -0.73302409035872        0.03193017273835
C            2.56776210417170        0.49128238667703        0.03761212900800
C            3.12311462039122        1.85715746376644        0.04865788052120
N            1.25883849350644        0.18398762846817        0.03126833275113
B            0.11679785086014        1.21246747715219        0.04171968654519
F            0.20304602424398        2.00108302455135       -1.09762884383918
F            0.20321511181772        1.97683938862116        1.19752717282181
H           -4.40931781338107       -2.51101635974067       -0.00217539767674
H           -3.01579553737324       -3.15010833907898        0.86903295504561
H           -3.01931755610874       -3.12594842836857       -0.89620709232904
H           -4.44664335295678        0.11934508887363        0.03191040354097
H           -3.75573361115874        2.71254213206482        0.07108655251143
H           -2.24538360022757        2.96976681901911       -0.81156513340533
H           -2.23957478637114        2.94492704846713        0.95041873981989
H           -0.33623048124941       -2.84382329414809        0.00258935684774
H            1.78641970949737       -3.84149585175420        0.00857581899358
H            3.26329383246814       -3.48883844121288        0.90332047422983
H            3.27621694229087       -3.48117153477465       -0.86151888616095
H            4.33322460547167       -0.84149739053315        0.03579552671580
H            4.21311737475792        1.84225384244636        0.05562210975273
H            2.78126209881194        2.39948213293175        0.93044406971604
H            2.79271655152023        2.40909857089705       -0.83153430188691
