47
 energy: -8.510559512151 gnorm: 0.000775192031 xtb: 6.5.0 (97a52f5)
C            1.44462784811165        1.66258567027678        1.40267149405638
C            2.77107498658224        0.29047860405811       -1.72274029465570
C            1.84244900848881       -0.79463829830557       -1.66165518445334
C            3.40933961237066       -1.13820890024310       -2.00404480806809
C            5.35554794104871       -0.19181105135611        1.08905015053048
N            4.89130366613678       -1.24140226186927       -2.42918527102785
C            6.26440622748791       -1.11681757939443       -2.19770703555040
C            7.07682747010594       -1.45480073517644       -3.16904716199750
C            6.54385757033954       -1.96583734768135       -4.39415281491779
C            7.32427884067717       -2.39910490698913       -5.48790227278446
C            8.71017457147283       -2.43065994483932       -5.75298237180820
C            9.13195186704954       -2.88761620028737       -6.96668452978811
C            8.21139699225149       -3.31346870407827       -7.94959979366378
C            6.86877415485413       -3.29925934805637       -7.71558689276482
C            6.40227938095845       -2.85664346914537       -6.45657496709454
C            5.12228737935904       -2.69304602647327       -5.88271213193205
C            3.86954759864305       -3.07523632795859       -6.53672844667019
N            2.72860400558958       -2.30815850965204       -6.50950159410196
C            1.72715421893699       -2.93753188895958       -7.20232587800444
C            0.33795046240358       -2.45267113614615       -7.34492572362665
C            2.23894704468317       -4.12162311076920       -7.68528550888776
C            3.57427039963738       -4.22979169197462       -7.26962274482945
C            4.44068828247810       -5.41536613116195       -7.48814476384249
N            5.19036885022540       -2.11324553202993       -4.63086076604854
B            3.90476802802123       -1.63749855468659       -3.72067692866198
F            3.10387267660686       -2.79579350687694       -3.73574114748510
F            3.35969347008699       -0.56307733571943       -4.43549384510554
H            0.59430458133596        2.26753921711646        1.17600323066248
H            1.15421757447171        0.86760448497817        2.05348396873329
H            1.84828434380483        1.25809666655934        0.50045532446630
H            0.77809009454322       -0.72447260155537       -1.45113833179998
H            5.48416608561266        0.86112635478015        1.21108193019411
H            5.03794976158784       -0.39864957695491        0.09065683702375
H            6.28126495833441       -0.68840181314399        1.28022776630189
H            8.14044374514015       -1.37016034861211       -3.03982261443306
H            9.40823180365691       -2.09241512260833       -5.00835145284418
H           10.18616979094438       -2.91645497203876       -7.18721166267465
H            8.58096426352128       -3.64901511958746       -8.90439145077064
H            6.16658833800059       -3.58718165546068       -8.47654993830372
H            2.64821915461669       -1.50787055765210       -5.88712373138224
H            0.26087954104823       -1.40754364090174       -7.04611026328633
H           -0.33976759671489       -3.03375992637158       -6.71944538962772
H            0.00188916964261       -2.53345444125417       -8.37880990535541
H            1.69544070901880       -4.85801996790502       -8.25241658432404
H            4.73918662245946       -5.49439906805541       -8.53357224888307
H            3.91180508155166       -6.33092199254696       -7.22219458961446
H            5.33999940155508       -5.36609179337217       -6.87428967261791
