45
 energy: -9.411493175660 gnorm: 0.000940504965 xtb: 6.5.0 (97a52f5)
C            6.06057915520409        0.59981346175272        0.15655369723369
C            4.96737353718677        0.16548233004136       -0.74454092227235
C            3.70677125567073       -0.26737063800873       -0.36789686562262
C            2.95636210994786       -0.57055404140033       -1.52375771882278
C            1.56826581658923       -1.06114808392315       -1.58076294319220
N            3.75556264440167       -0.31975634115011       -2.56915523300443
C            5.01061673809721        0.14014275655830       -2.16793690245047
C            6.01585522700264        0.48855148262586       -3.05725298904675
C            5.76341512112791        0.36259048436005       -4.40428281831211
C            6.60622450474994        0.63550573050036       -5.55369787989523
C            7.90554567411587        1.10966607605668       -5.67292574259985
C            8.43852959299966        1.26725766864920       -6.93697740433752
C            7.69586685298300        0.95981344732705       -8.07250450632837
C            6.40328110944414        0.48944429825954       -7.97187425969163
C            5.84881428078399        0.32569126896085       -6.70527424131710
C            4.54206546943684       -0.13188613071869       -6.28145675272932
C            3.46985232959111       -0.52695755048108       -7.04713792868627
C            2.49749413211263       -0.87666083808599       -7.71285866912497
C            1.38336021400223       -1.26813970502561       -8.45866672000113
C            1.05517000468835       -2.61435575240617       -8.60244119923052
C           -0.04423934316045       -2.99502576980415       -9.33621264729409
C           -0.84687245964629       -2.04470802154336       -9.94543694087603
F           -1.92738909566631       -2.42089077653552      -10.66523236212428
C           -0.52869625139307       -0.70390224679600       -9.80661479900231
C            0.57007118477808       -0.31902206834244       -9.07411965905026
N            4.56250882843256       -0.08630564731193       -4.93077676442680
B            3.37229141439010       -0.49333418010280       -4.04713377814437
F            3.07366954505107       -1.82591824894209       -4.28080874588559
F            2.29711687345513        0.33286353739039       -4.33220364223682
H            6.98434668593725        0.06684922182027       -0.06933275533984
H            5.80890897912106        0.40618847326673        1.19944923697033
H            6.24894727342993        1.66823162608325        0.04834846524917
H            3.35362991483750       -0.35952150659708        0.64466579883679
H            0.88093184099550       -0.33805098494098       -1.13955103867801
H            1.46529348158239       -2.00303121415779       -1.04010649824026
H            1.26149007366567       -1.23046414986998       -2.61335366347443
H            6.96508486542781        0.84520482157414       -2.70493612697779
H            8.47571907821618        1.34691647378267       -4.79237604832155
H            9.44584287473386        1.63417672952462       -7.04509240399785
H            8.13768758147326        1.09101653253245       -9.04650127725379
H            5.82342272608333        0.25041721583788       -8.84561144822188
H            1.67519142593210       -3.35559994186465       -8.12773386403711
H           -0.29971099963628       -4.03378205135172       -9.44883983326557
H           -1.15824254836699        0.02712712674111      -10.28227143018890
H            0.81337028015543        0.72431512574893       -8.96694977459535
