46
 energy: -7.911597623857 gnorm: 0.000813720599 xtb: 6.5.0 (97a52f5)
C           -0.39595435193031       -0.86073971853004        1.70372233628746
C            2.73699925254133        0.50534831379272       -1.92863806555983
C            2.78575805974278       -0.25455258055157       -3.09253329784720
C            4.17290007756032        0.60268094999124       -2.64556848051210
C            5.67978818645355        0.03670945807499        0.57157006137595
N            5.65785733073151        1.06383331594133       -2.84223174837971
C            7.04369441496596        0.96755882053763       -2.63197247986111
C            7.81671164415361        1.83770764098337       -3.22716798755254
C            7.22143216191795        2.85128893367292       -4.06342820586205
C            7.89690747552432        3.84674644571869       -4.74935415913244
C            6.91454255974978        4.59091049544342       -5.40346077379394
C            5.70713522043304        4.01331825364257       -5.07526136180145
C            4.37436191906859        4.46907855120732       -5.56860244061275
C            3.91711447015946        3.72549576307522       -6.81685922689989
C            2.62130113129899        4.27762777830088       -7.33141224316633
O            1.58464088407500        3.68187716744418       -7.13428563887271
O            2.70912795784351        5.45638412317579       -7.97116135407084
N            1.42506716887938        5.93856968110936       -8.33528827299457
C            0.65434475679814        6.71355146468842       -7.46949377645606
O            0.99828691989944        7.08443194662462       -6.37374592910238
C           -0.64561889437735        6.98122338708624       -8.16829061106804
C           -0.52440773929861        6.29945053730109       -9.54840825407505
C            0.82906758935478        5.65180500193706       -9.56309777267441
O            1.32935551986249        5.00507337263533      -10.45070249834513
N            5.85593474178027        2.92508670016027       -4.25553000195097
B            4.60435295583162        2.03047248237968       -3.71489557708393
F            4.04979573483502        1.55208631524777       -4.90515730454681
F            3.81609331471499        2.99959829380526       -3.08316000220289
H           -1.37413253818338       -0.70732638064194        2.10433656153680
H           -0.44340543377722       -1.55882397925313        0.89719734842374
H           -0.00174123685989        0.06750975582118        1.35247704485005
H            1.96681887188750       -0.84713611000642       -3.49540897707216
H            4.72550349210692       -0.38814247591329        0.79223764319703
H            5.84948908388801        0.88514004398572        1.19721349178027
H            5.70896588202424        0.33681648393135       -0.45292257497250
H            8.88351317377626        1.80419316290710       -3.09267926308039
H            8.96241055294444        4.01189327808491       -4.76905357091940
H            7.06751846600369        5.45045377191601       -6.03698988415409
H            4.40475651965907        5.54556124653652       -5.77152025737262
H            3.63390390825826        4.33286529640536       -4.77062440848982
H            3.78993296648040        2.66129785632050       -6.59494140752836
H            4.67675940907879        3.79788054140007       -7.60123186042156
H           -0.80908717040641        8.06145955223224       -8.25146447131101
H           -1.47215755258491        6.57008080837238       -7.57796505775586
H           -0.59972936069080        7.01857378346552      -10.37172639783502
H           -1.30019953377303        5.54159039079506       -9.70483884029453
