27
 energy: -5.145658290060 gnorm: 0.000794937958 xtb: 6.5.0 (97a52f5)
C            3.51140740681989        0.64982307269181       -2.22001603060258
C            3.86087092973800       -0.45460291541558       -1.29583007787346
C            3.72263761166276       -0.44386344716206        0.08839273901174
C            4.20190293532439       -1.65753244853960        0.61341691045818
C            4.24301917942784       -2.07914651293917        2.02507076513175
N            4.62892080590010       -2.38189025860687       -0.43597125170984
C            4.45533152825508       -1.69991351046519       -1.64852735210949
C            4.82160924391769       -2.22373565895880       -2.87603237382172
C            5.37867127499744       -3.49009437585378       -2.90290016940646
C            5.84367765951164       -4.28153915109477       -3.98097409239892
C            6.30601261588657       -5.47868771514277       -3.45684875688986
C            6.14093256545346       -5.45709451978429       -2.06431167185583
N            5.59224308738090       -4.27279750392741       -1.75774082072383
B            5.24078844163278       -3.78845286610934       -0.34249878594097
F            6.39856486023271       -3.72710158334376        0.41803302634533
F            4.30947810317978       -4.65009160037847        0.21685895325822
H            4.36442828250817        1.31064683033798       -2.37235169882289
H            2.68966524844840        1.24497812487181       -1.82211876662148
H            3.20276936804002        0.26496268188947       -3.19148537651710
H            3.31807177793218        0.36725678157371        0.66872860773315
H            3.24418356910153       -2.07668532246878        2.46146861622161
H            4.87681401678052       -1.41380718644173        2.61129548590515
H            4.64602514826715       -3.08914368130305        2.10545296325233
H            4.67932183518236       -1.66664184297456       -3.78247633035492
H            5.83595543092631       -3.99565362623982       -5.01897995493827
H            6.72394307782068       -6.29387812754680       -4.02539673094274
H            6.39892399567177       -6.22318363666823       -1.35178782578718
