62
 energy: -11.943698343031 gnorm: 0.002991612800 xtb: 6.5.0 (97a52f5)
C            4.41603220126070       -1.22237805910077       -1.62578727790962
C            3.88251374682654       -0.65351686516037       -0.36834862189999
C            2.89193667759342       -0.78158028664978        0.44745155267742
C            3.91227167007027        0.27727804598734        0.84563531915703
C            8.49031253515711        1.43909635114216        0.50356325885490
C            8.91557190350621        0.47404530726674       -0.34825382995030
C            8.29528046114735        0.34996399855007       -1.56592679114095
C            7.23152341129026        1.21793467466623       -1.91679189451059
N            6.60602630656899        1.11475330460990       -3.14129601752455
C            7.05934652219692        0.17116315884832       -4.16750267116398
C            5.48709130232000        1.98358146925660       -3.51291411289130
C            6.83429859475031        2.20087466557452       -0.97451534471628
C            7.47762950494951        2.29904314620091        0.23416448981463
N            4.14562711157572       -0.08820240181676        2.28194139344993
C            5.33345488044650        0.08538588522853        1.40410445871606
N            5.52393832233758       -0.47900880107482        2.55774652941635
C            5.62837449325453       -1.09086292464775        3.83263453404610
C            6.62877701651971       -1.55404257520838        4.70380733607374
C            8.08959973704084       -1.48451575816295        4.47319316047649
C            5.97132889361509       -2.03441282916600        5.83403383019081
C            4.58241397182654       -1.87236942065088        5.65869044533887
C            3.49422902258434       -2.24067155508874        6.55592223465563
C            2.17904504714483       -2.19991793477230        6.10116705653596
C            1.13314103997846       -2.53545823808238        6.92358801604284
C            1.35824460439697       -2.93019910096681        8.24499350376373
N            0.28442712007520       -3.28058541119975        9.09281466173005
C           -1.08027001797467       -3.40835240326922        8.58572204727433
C            0.48487471935212       -3.53180772937424       10.52063178657532
C            2.67973485287387       -2.97266119101531        8.69825478481839
C            3.72485700023478       -2.63652448901890        7.87249990562465
N            4.43558631304029       -1.29178591011409        4.43633858251251
B            3.33386298830788       -0.77811655132956        3.50565705360469
F            2.57083241550555        0.19269940799922        4.12781248574870
F            2.58309966859035       -1.82824170738756        3.01618516510642
H            5.32632471474067       -0.70231227278787       -1.92344340072491
H            3.69091147698783       -1.12969223431367       -2.43463892164851
H            4.65734489314498       -2.27834830119933       -1.50013449522703
H            2.00374035128030       -1.38905256471178        0.55106390657162
H            9.72662205501982       -0.18114401690415       -0.06522001303212
H            8.61404377932793       -0.41108831716500       -2.25500999970192
H            8.11325224917676        0.33506765668610       -4.38496243859015
H            6.50141208887002        0.29590847613803       -5.09315292276856
H            6.92435843425622       -0.85299885629017       -3.82377966788121
H            4.69073153124010        1.90631127308994       -2.77464719476401
H            5.07445138205062        1.70606406532134       -4.48121992414598
H            5.82239783938907        3.01810904794255       -3.56755754009227
H            6.02849482462705        2.87190143893142       -1.21030846173912
H            7.18556434308659        3.04022399331419        0.96379875738155
H            8.32935814883425       -1.72787945758090        3.43765868173336
H            8.62236166568908       -2.18567241210031        5.11623055665022
H            8.46578543735741       -0.48227175074604        4.68050794757186
H            6.45374227409618       -2.45781175165607        6.69801587525549
H            2.00076986356311       -1.90440918531406        5.08214954143777
H            0.12619686288866       -2.48634139099428        6.54999990512824
H           -1.48446909493552       -2.42476097605379        8.35450753073230
H           -1.72583250666560       -3.88456704073504        9.32055007228915
H           -1.08871653540948       -4.02086368063953        7.68639004756013
H            0.99475698875508       -4.48224507709448       10.66405529696390
H           -0.46699106584441       -3.56745325285979       11.04631277525092
H            1.08139670233865       -2.73556925695944       10.96106329732996
H            2.88219480210569       -3.28447353444760        9.70710960150060
H            4.73543161902153       -2.67306077251670        8.23959619207278
