38
 energy: -7.002137848639 gnorm: 0.000518046420 xtb: 6.5.0 (97a52f5)
C            1.14034001897235        0.25623387961544       -0.97477280359844
C            2.48250856313365        0.13676814461600       -0.35565574882406
C            3.15042043567927       -1.05621647178482       -0.37793303672163
C            4.37781571237967       -1.18902248444981        0.28705193247118
C            5.07948374529165       -2.43822801802133        0.39364438305718
C            4.59895651620988       -3.65239966052762       -0.16011540191755
C            5.30098341252769       -4.81175012801591       -0.02953727199696
C            6.53664637268963       -4.84296601798158        0.66364481265614
C            7.27760482505042       -6.02181483368078        0.81327552111859
C            8.48644810423707       -6.04242040237747        1.49688940896085
N            9.21814712863859       -7.24158912174568        1.63808263950511
C            8.86436923906544       -8.44923663750507        0.89293583469128
C           10.35916986699073       -7.34279350969298        2.54749147985172
C            8.96538495474093       -4.83514838227394        2.04637277792001
C            8.26795702941369       -3.66828831514873        1.91813219388795
C            7.03602095493275       -3.63491269775220        1.22705693882732
C            6.29411449682556       -2.45893312984173        1.07824880156939
O            4.92949801216865       -0.09443140554083        0.88573394061536
B            4.47777566710569        1.23076098799728        0.43852856682003
F            5.07845828238741        1.50180083139286       -0.76824442160549
F            4.81857668483538        2.17830737773763        1.36970563797526
O            3.02106330840411        1.23004432676983        0.23364361801024
H            0.45511936194807       -0.48934856354114       -0.57103130900898
H            1.19749229923214        0.12388459060970       -2.05526530718615
H            0.72284693484295        1.24304654418294       -0.77635474924122
H            2.69672294377012       -1.89850824839053       -0.86285020237806
H            3.66451623775654       -3.66153248883437       -0.69067656760875
H            4.92208962884461       -5.72476679102728       -0.45496372064763
H            6.88582650176647       -6.93126869049842        0.39886052340096
H            8.67893618549095       -8.20342762916906       -0.15048668325458
H            7.97239016754598       -8.90182229512220        1.32089285711058
H            9.67381504069309       -9.17508808358882        0.92711879407736
H           10.11285259877410       -6.89498688281177        3.50794831624918
H           11.22023473607442       -6.83210670160449        2.12155308240282
H           10.62323129998366       -8.38364070304347        2.72146249800195
H            9.90720363227348       -4.83429442782654        2.56504158073780
H            8.65214100150806       -2.75706809690611        2.34243783263865
H            6.66186809781312       -1.54147586421549        1.50007325143078
