34
 energy: -6.859809659519 gnorm: 0.000679499496 xtb: 6.5.0 (97a52f5)
C            1.11238181389885       -0.17324543466318        0.68772264940218
C            2.41815842645657       -0.12170973218021       -0.01452060987936
C            3.14159030928748        1.03908592388674       -0.08806604125487
C            4.34823516251021        1.08211864225835       -0.79780274905669
C            5.12334092395479        2.28306390501275       -0.97021276114682
C            4.73050724170749        3.54880789371788       -0.46888033387398
C            5.49745615278204        4.65515574159547       -0.67380206197013
C            6.71437527317859        4.57651321070980       -1.39282472090814
C            7.52411711573393        5.70094831073958       -1.62536469510245
C            8.69631436627901        5.58555242592994       -2.32733241358644
C            9.10582218043408        4.34905832348315       -2.82253945856405
C            8.34372715086047        3.23183072179437       -2.61738242054291
C            7.12917040457277        3.31359192638662       -1.90055440241304
C            6.31892297198963        2.19430800398079       -1.67742749095228
O            4.82412260645323       -0.05056006124019       -1.37359564269580
B            4.24056637130170       -1.37710451956786       -1.09621020087448
O            5.07145520010597       -2.05928465399754       -0.08991728074118
C            5.53139483849000       -3.18786324489176       -0.65933653309566
O            6.24473569701239       -4.03203326222738       -0.16686098968014
C            5.01147778754304       -3.27184829627549       -2.06974595354808
O            5.26955527083290       -4.18897794254819       -2.81562187960515
O            4.24921489283844       -2.19228317643754       -2.32040937806401
O            2.86237824046898       -1.26135879606180       -0.57782949241606
H            0.79203082187708        0.81364286421401        1.02215270633042
H            1.17794769021088       -0.82596269179227        1.55821485496560
H            0.34587391004272       -0.57435328866044        0.02467088769470
H            2.75867130413055        1.92336323901041        0.38387151921753
H            3.80929938157936        3.64299136367762        0.07712103712498
H            5.18206336909157        5.61012953720413       -0.28962167928703
H            7.21255329917751        6.65891374231227       -1.24551919304692
H            9.30687990478404        6.45715889256711       -2.49908415734936
H           10.03058211071398        4.27456928854396       -3.37189413700136
H            8.66270223073034        2.27818676236893       -3.00119306167187
H            6.61676557897069        1.23422438114908       -2.05957391640718
