32
 energy: -5.029771773086 gnorm: 0.000697965495 xtb: 6.5.0 (97a52f5)
C            1.02827328582742        0.08902050623132       -0.06657980614035
C            2.50446908670602        0.01242266698466       -0.23504109256481
C            3.30324702815910        1.08276573552638        0.07053794832587
C            4.70007550451499        1.02511137315458       -0.05916967173604
N            5.40707107731749        2.12282775443588        0.25465742381189
C            6.74580957160973        2.09012843801289        0.15457135513231
N            7.41423548997894        3.22475544994204        0.49637069680497
C            8.72028957670681        3.22704925583212        0.41826150863323
C            9.42190838373714        4.47844653121612        0.79579089384572
N            9.44711101986985        2.12994438691884        0.02340546634159
C           10.91193605728120        2.16312748998900       -0.05480385053937
C            8.79530849830131        0.98927942080271       -0.33564073293556
C            7.44034647712194        0.93959637140508       -0.28169799478543
C            6.70540644940641       -0.28946729557652       -0.67339711440677
N            5.25110923914466       -0.16245348109894       -0.50391897474881
C            4.46496807519908       -1.23791884213141       -0.80193488889250
C            3.11238192239516       -1.17137094802275       -0.67243808054095
H            0.66328205325254        1.09828288601953       -0.25885419655622
H            0.74193209386850       -0.18827899230569        0.94835822783697
H            0.51893389963710       -0.58238153301028       -0.75837909659928
H            2.86106181054533        1.99760288295171        0.42134197790987
H            8.70434759477184        5.29158839692272        0.90480269338359
H           10.14383403486116        4.77079878318589        0.03380636731466
H            9.94044756610087        4.36181796861469        1.74724623118497
H           11.32802468298698        2.64480466276772        0.82719002146305
H           11.22213212631313        2.70594268125852       -0.94555318157709
H           11.31203715150047        1.15258657812229       -0.10669215617381
H            9.36204754589901        0.13695611730439       -0.66455889724785
H            7.04915255425588       -1.13655657402545       -0.07296435177509
H            6.90828936646847       -0.52599900211133       -1.72185459073071
H            4.94160959764100       -2.14111413616204       -1.14269073197462
H            2.50051117862074       -2.02608553315522       -0.90481140206315
