76
 energy: -14.950666397601 gnorm: 0.000598973743 xtb: 6.5.0 (97a52f5)
C            2.77267816901568        1.55898020269927       -0.76035835480332
C            4.12210225168857        1.14642250561309       -1.22383155541178
C            4.65319491099782       -0.07421888985565       -0.99812738868996
S            6.32263866815281       -0.17445487610704       -1.53605701721087
C            6.12008777969591        1.25548314437513       -2.63279396354182
C            5.46535206478493        0.72547207277063       -3.91384774315355
C            5.11261085650802        2.05744968545054       -1.82038297990837
C            5.36826407082348        3.33546160172313       -1.38654975804872
C            6.69153496512569        3.87488763020300       -1.40149819004003
C            7.73172749130567        3.16273163679927       -1.93953779034731
C            9.14620037649606        3.33479052929511       -1.68831511145415
C            9.71640621437778        4.52375609825319       -1.00373810549882
C            9.90385001934837        2.26794663840814       -2.10197308625246
C           11.34675825884140        2.09798289684813       -1.92332902483778
C           12.14520329308343        1.64451785130267       -2.97857288405249
C           13.49759855261735        1.47412368620092       -2.81993263858155
C           14.10776095972870        1.72803250241735       -1.59114007158934
C           15.53874121907831        1.54583736874175       -1.39419137377692
N           16.11898628238648        1.49002549056093       -0.19854072089625
C           17.43714206038481        1.32316102597374       -0.41392435893167
C           18.42597945591703        1.25123296390014        0.67222901405349
C           19.70341707232121        1.79200973700554        0.54036164945179
C           20.60887604344838        1.71464426951866        1.57414819735380
C           20.25530635926469        1.10385385497231        2.76018426303426
C           18.98904820051841        0.57674302703785        2.91305799804845
C           18.08098309060682        0.65395475029593        1.88133339708923
C           17.68670277753023        1.27010981321400       -1.80519679638633
C           18.95549246581411        1.05387479934341       -2.50878573693634
C           19.24219139934019        1.76334378406994       -3.67298375117367
C           20.42975925117957        1.56751569993035       -4.34107586250938
C           21.34985340117415        0.65543820205036       -3.86511108547310
C           21.07734481071959       -0.06500371765897       -2.71990286153495
C           19.89151623258423        0.12840540788222       -2.04871835559992
N           16.47287893984677        1.41897305161284       -2.40512539803433
C           13.31087107791234        2.15259870628764       -0.52864164483344
C           11.96178726881268        2.33862865414707       -0.68964642534321
S            8.92657740751960        1.03084054784523       -2.89195061044921
C            7.45425787543629        2.06512542522488       -2.95085152608005
C            7.41095470938768        2.71657505543391       -4.33875402631838
C            6.75842772656271        5.11541826506223       -0.53232166924851
F            7.39644920842738        4.83838351806930        0.61585148500450
F            7.33926711749225        6.12831379252675       -1.19309304664210
C            5.27041121967996        5.48465887459225       -0.22492534859891
F            5.13563019152849        5.88683750692708        1.03966989644048
F            4.85326219929817        6.41240642418336       -1.09174642798308
C            4.48497994937505        4.15692232674552       -0.46932303178843
F            4.31943744347323        3.51851106369579        0.70034542761386
F            3.30909804804128        4.42478731363033       -1.05776951070365
H            2.06186927112459        0.73570352780743       -0.83228803011158
H            2.39657208190276        2.38719577068200       -1.36149345418169
H            2.81122356184559        1.89260632969256        0.27696657297492
H            4.13998370923859       -0.88053758666055       -0.51160733531366
H            4.59109363118339        0.11908803185352       -3.67623083509163
H            6.15992625790901        0.09593013827845       -4.47036109950688
H            5.13098259436533        1.53879706053332       -4.55751425374048
H            9.26033917913616        5.43845815875880       -1.38072488557406
H           10.79034214423469        4.60483895935241       -1.17041520450054
H            9.53255416970601        4.47716024862625        0.06979968721823
H           11.67999201167562        1.43646997383306       -3.92649642784341
H           14.09601357172311        1.12588569707048       -3.64246606724908
H           19.97335798973086        2.28081781733444       -0.37930788149698
H           21.59538929713662        2.13235542897916        1.45730106069261
H           20.96635161787936        1.04157014509320        3.56761762458317
H           18.71069170767698        0.10469687344719        3.84102372923987
H           17.09053506571922        0.24854075899237        1.99449999434839
H           18.52618881499025        2.47937674064306       -4.03706255498856
H           20.64197391003318        2.12838063655374       -5.23652038790223
H           22.27975744173956        0.50459561172330       -4.38852763374028
H           21.79436946899725       -0.77964131532346       -2.35036552474186
H           19.67279386287799       -0.43850632849678       -1.16052448402375
H           16.29482111873542        1.40511529836708       -3.40870740194997
H           13.77589770259327        2.33238015230703        0.42488329235351
H           11.35578393321351        2.64072557622852        0.14665422941983
H            8.31030770247085        3.30989748667698       -4.50613535308551
H            6.55261100177994        3.38268058030598       -4.42979431946664
H            7.36361777274787        1.96838630808897       -5.12941915177195
