36
 energy: -5.040180755007 gnorm: 0.000692294180 xtb: 6.5.0 (97a52f5)
C           -2.64909312451686       -0.87030883883516       -0.13127622970484
C           -1.28982653991287       -0.34632548457749        0.12092012812897
N           -0.30269117634117       -1.05887939319440        0.58531487666403
C            0.79570857404770       -0.23123716901073        0.69913871480608
C            2.03311876968980       -0.57720552099827        1.14558535560691
C            2.36014865407508       -1.86328040443480        1.56055304478628
C            3.55732867234143       -2.28177325703748        2.03790391044599
C            3.78804728465549       -3.55286523101542        2.43019152688434
N            4.86364125452629       -4.15990833762307        2.93451939589168
C            5.77970438072046       -4.64641054474803        3.37141087472077
C            5.00598408506513      -12.76045080634325        5.07339736690708
C            2.13088861213960       -6.00942414347714       -0.21704302470686
C            2.73779544776173       -5.89587237407375       -1.34908987123006
C            4.01440167234986       -5.53460192153605       -1.36952020118762
C            0.35940800216870       -1.03148714238214       -4.30917085430881
N           -2.78946634381710       -2.15977436500582       -7.96028754796939
C            0.41537625854123        1.12036813997142        0.26436687943714
O            1.11346614962546        2.11753345858233        0.23076515668992
N           -0.92094060769163        0.98439650190661       -0.08778338500680
C           -1.74409381320043        2.07504635843439       -0.58272401850178
H           -2.65882149749388       -1.95752357707773       -0.06142256381957
H           -2.99380933798137       -0.59205249959904       -1.12677760390098
H           -3.35579086234723       -0.47726364872451        0.59912148354283
H            2.79038234240669        0.18539391427432        1.18164033105180
H            4.35960933108111       -1.56822411429928        2.11471265501091
H            6.08795162144940       -3.04311088491892        4.96288777587593
H            7.41984256824071       -4.20102702559452        3.25694838440186
H            5.99133634780168       -5.49130125522402        4.83036389821766
H            3.75378790070183      -10.92482986591529        0.91066799339160
H            2.44942969722878       -7.82557506890224        3.99811797095143
H            6.30950044823588       -6.15118277757397        2.60366671630777
H            2.58579482885801       -7.35463872169829       -2.25231177489919
H            1.85882218783592       -4.89711815526858       -2.39647987713312
H           -1.17314580392014        3.00126880259278       -0.55657749398215
H           -2.62920470174065        2.18810505353585        0.03976698444406
H           -2.04821127470479        1.87698028912904       -1.60832697849659
