36
 energy: -6.552096228756 gnorm: 0.000730131126 xtb: 6.5.0 (97a52f5)
C           -2.33622768143232       -0.65052262982754       -1.31204251614119
C           -1.13846093834412       -0.45105642148057       -0.46889955244281
N           -0.31795583220089       -1.40226440496509       -0.12568040147266
C            0.68498422297746       -0.84382249964909        0.63980399560179
C            1.76413177659014       -1.46078574161890        1.19618347405617
C            2.09661673578147       -2.86555221024213        1.11791129720079
C            1.23971867120988       -3.73010449273863        0.41579787645801
C            1.32299841247586       -5.05482712978779        0.18168314988841
C            2.12450981890276       -6.12762596182700        0.42238567341750
C            2.81944166262761       -7.04837862457016        0.62979361220801
N            2.43651281356031      -12.79301371709682       -5.74623481531680
C            3.76174946597956       -4.51039214564752        1.80977811750102
N            4.89257073748460       -4.97766409872593        2.40471490923899
C            5.79218005027396       -4.11668709814147        3.16770301342227
C            5.21134867779922       -6.39830140646297        2.29430896076057
C            3.27289445880934       -3.25895844586825        1.76470470640287
C            0.42662210492696        0.59800286834408        0.76371292810188
O            1.08918544750717        1.42287910716997        1.36636684324959
N           -0.73980452386365        0.78788290589360        0.03556550222332
C           -1.39270692768867        2.07618991748335       -0.12450186138651
H           -2.53058807830781       -1.71342557695326       -1.45320379015680
H           -2.19675630614396       -0.19836720285513       -2.29373329892656
H           -3.21592803678834       -0.20383017431144       -0.84942580298780
H            2.43668786071755       -0.83032059402426        1.75024815733255
H            0.37279431810633       -3.26228468311302       -0.01222174994175
H            1.15933461445361       -6.81747009737288       -4.05552211505455
H            6.20614461630212       -3.34568935090058        2.52094240289767
H            6.61265859491736       -4.69758465270759        3.58418621856883
H            5.25120995329811       -3.64538621216673        3.98582435423286
H            4.46044224125274       -6.88728845939432        1.67263055663665
H            5.20838535775698       -6.86087649863607        3.27906602480838
H            6.18896769330657       -6.52916760835388        1.83507797846491
H            3.83702535415518       -2.49379098044499        2.26754676905959
H           -0.78089458038816        2.85084102608806        0.33420051674388
H           -2.36686246658998        2.06275091112434        0.35980831518978
H           -1.51786028787734        2.30323237915946       -1.18115944993622
