35
 energy: -5.681843926388 gnorm: 0.000870146443 xtb: 6.5.0 (97a52f5)
C           -2.56305732931631       -0.81603353386638       -0.21450013426696
C           -1.22753029746850       -0.31257896300182        0.17181759583794
N           -0.17065089335278       -1.06319800457153        0.30373334339597
C            0.88498919672815       -0.24683837575130        0.64951344874531
C            2.18119067540329       -0.61048983891889        0.88885819752609
C            2.71102979242849       -1.93980967046746        0.82467143164410
C            4.07426385911556       -2.12437219137379        1.14246730328141
C            4.83347841829954       -3.27109593836000        1.05610398199771
C            4.52043543669603       -4.44525377026286        0.43823080871298
C            3.60603195676323       -4.68624273543527       -0.47065866079522
N            3.30978678949195       -5.86520600149162       -0.85408557376162
C           -0.36563171727340      -11.80976391375473       -6.08682457550590
C           -0.01664563993626       -8.30044913978474       -9.85129915330938
C            1.90515202020911       -2.98861227398612        0.52344896834587
C            0.40314941530469        1.13649642835949        0.72529672948733
O            1.04770394541252        2.13521608735185        1.00450557680147
N           -0.94366336656409        1.03603249264809        0.40622474958358
C           -1.86087604231924        2.16272802029712        0.36594132485745
H           -2.59816093291045       -1.90277410881333       -0.14335088408027
H           -2.79837752227252       -0.53592989093892       -1.24104323103219
H           -3.33533812418205       -0.40899000325389        0.43767303359976
H            2.86245668344492        0.18108091260430        1.14509734033505
H            4.57111593649097       -1.25177888548531        1.53822461834560
H            5.81133487740949       -3.23932086448241        1.51303414455950
H            3.44944723207137       -9.45317782683753        2.85686044854244
H            4.10457434303624       -6.36678686338191       -1.24793980117133
H            2.53242160553598       -5.88500930207493       -1.51362378742251
H           -0.72501397772950      -12.42442847515623       -5.34943193763833
H            3.46740736634789       -3.42292458025488       -1.54778733303461
H           -0.48426948371017       -3.53345502554374       -3.48664295697086
H            0.25222925489306       -7.68867180621809      -10.62542307346880
H            0.89149777054469       -2.89348170073155        0.27404160632169
H           -1.30631874542951        3.08948920788770        0.50092259494920
H           -2.59674275330552        2.07355008968302        1.16254086644912
H           -2.37339973918652        2.19486044002317       -0.59339701172555
