29
 energy: -5.745273574609 gnorm: 0.000902770111 xtb: 6.5.0 (97a52f5)
C           -2.66265032225668       -0.47079365843230       -0.90498535959968
C           -1.26863831267275       -0.37942447551489       -0.42170108046774
N           -0.41168688535855       -1.36134249340862       -0.45522855176891
C            0.78324798874432       -0.91420808905159        0.05983368752897
C            1.97146868849799       -1.56900713677196        0.28860736830098
C            2.45317928108706       -2.91300194682096        0.07782242524160
C            3.67056562437083       -3.22908838803261        0.70707991302480
C            4.25577466573858       -4.46354303595374        0.59596330237028
C            3.65292052453805       -5.45321127028792       -0.16323867327347
C            2.47304428257204       -5.19251525337301       -0.80673210560554
C            1.84932948670166       -3.93998310285748       -0.71594425674250
N            0.68630666771285       -3.73658201163755       -1.41087910267125
C            0.61771374216621        0.49788858845427        0.42573481645703
O            1.45543921807713        1.23660712629813        0.91983071739712
N           -0.69648944945261        0.78693833095892        0.08968758452592
C           -1.32800398755886        2.07951529516616        0.29778411660373
H           -2.98762663184254       -1.50983300989061       -0.94471560612679
H           -2.75211652233595       -0.04843310021295       -1.90539091337853
H           -3.33972098979849        0.06911235388551       -0.24376676045266
H            2.69859054926726       -0.93273758916142        0.76833649491641
H            4.15376660708688       -2.47460841685683        1.30438542292158
H            5.18711729305087       -4.66621225619791        1.09900922151084
H            4.11512779070756       -6.42283664268120       -0.25044801535101
H            2.00841695358198       -5.95450985796131       -1.40736097179649
H            0.10598294368431       -4.48150418485220       -1.75745428284218
H            0.16608206303480       -2.90674406164611       -1.17464788082873
H           -0.57489235408525        2.81024479693018        0.58622333236980
H           -2.07071591321159        2.00858844385830        1.08964742408450
H           -1.81088300203998        2.41336504604939       -0.61827226635199
