26
 energy: -5.230753867992 gnorm: 0.000723179807 xtb: 6.5.0 (97a52f5)
C           -2.52346768292849       -0.88327129899944       -0.72159263338331
C           -1.13787797731714       -0.59443390869538       -0.29549023796416
N           -0.19403168288917       -1.48992962189127       -0.21302401829783
C            0.95573281486283       -0.85415716324768        0.20551280859233
C            2.18113216603379       -1.40937513636248        0.42213892746276
C            2.50499695499345       -2.79631265341324        0.25139832735975
C            1.57608282978255       -3.74162297407707       -0.16848376147913
C            1.94972929157410       -5.05105913777731       -0.31120492086576
N            3.16803573705678       -5.51509076185518       -0.07558222208477
C            4.05209487778462       -4.61301393963057        0.32605609730755
C            3.78655571290825       -3.27971305328686        0.50219269627418
C            0.66142313011639        0.57355925771430        0.38591106339668
O            1.42560095901385        1.45112492209117        0.74530101304033
N           -0.68178294308268        0.67816115173956        0.04816212250185
C           -1.43509928279124        1.91995664129619        0.10148455485022
H           -2.67661459203510       -1.95764444032215       -0.81886042018905
H           -2.73451617101520       -0.42226867872840       -1.68605322853328
H           -3.24024225565270       -0.50259037519487        0.00536142381993
H            2.96777159191306       -0.75218651042358        0.74578217643642
H            0.56994199422382       -3.43176856934029       -0.37673751759366
H            1.21923894706147       -5.77617211999991       -0.63861247927451
H            5.04807225702097       -4.98133068850017        0.52379074772709
H            4.55709037720132       -2.60449671540578        0.83223963741706
H           -0.74969583374216        2.75365275014001        0.24198653364529
H           -2.13511294934972        1.89461636224975        0.93395701472397
H           -1.98452827074121        2.06633666192504       -0.82604370488922
