51
 energy: -10.954670728317 gnorm: 0.000990534217 xtb: 6.5.0 (97a52f5)
C           -2.73768621149407       -0.10289649521368        0.09458414876653
C           -1.31541466406106        0.29986490536863       -0.01212737561971
N           -0.96036766637048        1.54055070533357       -0.19294031356915
N            0.39598911301369        1.60259561163144       -0.13024234508504
C            1.11413407467116        2.83002872880042       -0.24301001224189
C            0.41970173246495        4.01448410022301       -0.44646783859754
C            1.09117750477747        5.21193303659513       -0.55461191718873
C            2.46909593663069        5.24156672826068       -0.46141331994497
C            3.17165242293485        4.06980293510531       -0.25921911529007
C            2.49861470435611        2.87373094399026       -0.15141290071121
C            0.97547532786876        0.33930660498968        0.11173690642517
O            2.15160805340067        0.05377094953049        0.25368259322137
C           -0.16337092997963       -0.55781434189748        0.15322937620689
C           -0.04899459808040       -1.90306746608389        0.38211477348400
C           -1.08940966334921       -2.90188688755653        0.28575445459865
C           -2.08545880270729       -2.97635197996894       -0.65678235519144
N           -2.74540139319801       -4.15990331455690       -0.41270179924109
C           -3.89133716121638       -4.64247149951308       -1.14622527770159
C           -4.82488552037854       -5.44195342370684       -0.50541618563259
C           -5.92965309604025       -5.90923168519054       -1.18334520349948
C           -6.11129180104523       -5.58363102054030       -2.51296814128158
C           -5.18427879245436       -4.79207551779664       -3.16204868667574
C           -4.07965843173561       -4.32364219103517       -2.48377890780780
N           -2.22414686046446       -4.83969271815246        0.61677374374173
C           -1.21993107964340       -4.10910358440243        1.06658823035629
C           -0.40854681437328       -4.49210505733626        2.22742694638406
C           -0.32549363972170       -5.83279908371080        2.59676161344479
C            0.41671403677932       -6.22004325313329        3.68996016130428
C            1.08492077569901       -5.27465805221053        4.44190207044212
C            1.00349245959641       -3.93955359818418        4.09934730944568
C            0.26316595758414       -3.54997575653129        3.00576447784131
H           -3.32794476986162        0.70573685009470        0.52521791400235
H           -2.85604499471738       -0.97486016838579        0.73734651599131
H           -3.15465776737762       -0.32865055853286       -0.88640928404652
H           -0.65295228155502        3.97773454114092       -0.51743107154460
H            0.54144882402065        6.12551246271365       -0.71217616186230
H            2.99523527765001        6.17835962952684       -0.54470970968700
H            4.24675130446666        4.09122480055533       -0.18523605182319
H            3.03478597339364        1.95595387237284        0.00967480813538
H            0.93773492099192       -2.25766245152271        0.63048625880169
H           -2.27057632588742       -2.29522223864197       -1.46732332024679
H           -4.66953849551334       -5.68904576785681        0.53019859865491
H           -6.65120762910926       -6.52842150476753       -0.67580571752016
H           -6.97541642046300       -5.94799074319246       -3.04402380259200
H           -5.32427114640999       -4.54084842473344       -4.20072245478762
H           -3.35008601395392       -3.71474283935089       -2.98836797553186
H           -0.85249467393927       -6.56437549848833        2.00952975916990
H            0.47557609793711       -7.26197136172625        3.95912655975753
H            1.66499642794832       -5.57773142527359        5.29804234269821
H            1.51662394032966       -3.20030268907815        4.69238999564516
H            0.17915277859080       -2.50618480796525        2.76102768640595
