53
 energy: -11.446822690649 gnorm: 0.000914053797 xtb: 6.5.0 (97a52f5)
C           -1.76197197895989        0.09064307913678       -1.72140464865354
C           -0.60118622710108        0.60708507677692       -0.95948739550111
N           -0.54121231684909        1.81603513710325       -0.48222289586108
N            0.65334541732029        1.95248898128482        0.14352733473437
C            1.04962041862943        3.17013548365465        0.77149066416113
C            0.18180849913303        4.25261272667861        0.77563245678163
C            0.54139933221970        5.43733145636668        1.37776057891947
C            1.77599923598579        5.55681198439458        1.98428456504335
C            2.64846657961493        4.48688089330483        1.98745704634969
C            2.28685854055078        3.30328339205270        1.38582701110513
C            1.42701742919103        0.77274759398445        0.09156754503360
O            2.52768581982575        0.61061195862493        0.58369294026334
C            0.59160572823919       -0.14782067336955       -0.66578501585295
C            0.81320407126259       -1.43948278347768       -1.06283189596466
C            1.95095624361423       -2.27222730094232       -0.80808955554036
C            3.04562896914528       -2.00806357505318       -0.02884577445319
N            3.80206504982308       -3.15631989914230       -0.01950612865211
C            5.05496262172382       -3.33760948159334        0.67078964539157
C            5.86609128089979       -4.41007128343186        0.33641519003025
C            7.06646309950804       -4.61014780182466        0.98168729911634
C            7.46882140295055       -3.73845945103888        1.97323328905371
C            6.66744632318426       -2.66831980760396        2.31670645566797
C            5.46732389189060       -2.46792668285194        1.67046741477629
N            3.25466104944895       -4.13074650414865       -0.75332724597289
C            2.14295198297744       -3.62910021730796       -1.26227455776837
C            1.26792468526951       -4.38258992937691       -2.16989873934901
C            1.09768549318677       -5.75436399364684       -1.98689961301150
C            0.29461435889275       -6.48189771611988       -2.83168627220193
C           -0.35020845094118       -5.86323838339430       -3.88694723973567
N           -1.19529430891060       -6.64117509713352       -4.79207010098105
O           -1.29675352490994       -7.86439824185505       -4.60805569362151
O           -1.78126135853695       -6.05116370597901       -5.71347637629600
C           -0.17597067565938       -4.50668595199843       -4.09111365629554
C            0.62493547442215       -3.77363888529240       -3.24903397923152
H           -2.55235588431430        0.83948777976288       -1.76386419398651
H           -2.17145068822337       -0.80326422024801       -1.25103849211943
H           -1.47738130517764       -0.15636288061103       -2.74408778626117
H           -0.77724425997812        4.14559176407385        0.30071904404012
H           -0.14075430677923        6.27155636105494        1.37527784638769
H            2.05852118110416        6.48417646198702        2.45485701524909
H            3.61204595404582        4.57860611006874        2.46118284864522
H            2.95690909961845        2.46254149874328        1.38374302753668
H            0.01637933266107       -1.90530186367748       -1.61261723396668
H            3.27454636256276       -1.08842586874715        0.47031469332016
H            5.53851092499329       -5.08302486595177       -0.43637834250704
H            7.69013263603678       -5.44695602696159        0.71311497586528
H            8.40705115045619       -3.89422951361888        2.48003023906418
H            6.98035683916204       -1.98906089530927        3.09273140905451
H            4.83925297278190       -1.63785973587366        1.94122340119743
H            1.60378688421793       -6.23453498903074       -1.16761141065781
H            0.15898418017522       -7.54033978606766       -2.68861489090568
H           -0.67189364729567       -4.03981505247742       -4.92495361987336
H            0.79416841693482       -2.72909467395051       -3.44287118155578
