97
 energy: -18.081143843985 gnorm: 0.000802617803 xtb: 6.5.0 (97a52f5)
C            0.12549850602672        0.04469680974606       -1.21291272948287
C            1.57173605057684        0.01405208864004       -0.93831289228557
N            2.37086395798488        1.07139274209479       -0.81410366638674
C            3.69408056265682        0.74610145020131       -0.54371518327807
C            4.70155976856139        1.68981892028508       -0.36333179654892
C            6.07921530169325        1.28790292770229        0.00611392934251
C            6.38815991212795        1.01052510789497        1.28394055554267
C            7.78738326624824        0.70640903718859        1.73459899006449
O            8.45886807602595        1.85915720370725        2.28319109864130
C            7.61902629918597        2.72908063943025        3.03792792959070
C            8.42937317959919        3.72095253609623        3.87060197302237
O            8.89928766024681        3.18910212826681        5.10011739772433
C            9.52731888533463        1.92235621151426        4.97403088261269
C           10.25987818469798        1.51170119474267        6.25304307062972
O           10.44703401332587        0.10647021332846        6.39088430581773
C           11.15750109286244       -0.50915762157071        5.31343635812271
C           10.33711932807686       -1.62086687795568        4.66368134886789
O           10.96524270644792       -2.17549537018477        3.50743693495137
C           10.38895689687704       -1.73970840593337        2.28175857363172
C           10.50348798659851       -0.23709498622838        2.06592088626467
O           10.05968427650546        0.20255377117083        0.79678231375191
C            8.64728200212710        0.07707543183949        0.58009645414978
C            8.29286597370415        0.64971519452713       -0.76018000571895
C            7.11167986206500        1.19780987366769       -1.01526390107999
C            4.33464541950382        3.04348574395256       -0.49511565874060
C            5.16725781169039        4.22172489874940       -0.37146826736497
C            6.52931252439576        4.39349000956402       -0.13477187521186
C            7.04062942377543        5.66994081069907       -0.07493616286566
C            6.21670820099412        6.77911219802989       -0.24911555600036
C            4.86849262178912        6.63001086348658       -0.48684266175210
C            4.33477553956831        5.34344716019528       -0.55070178174746
C            2.98549123496543        4.87016818953401       -0.78747391008602
C            1.86877545974864        5.71069152157710       -0.98286094255683
C            0.59642434379384        5.28504018528918       -1.19416284497032
C           -0.55126470393309        6.11736220245797       -1.36383007687150
C           -0.48702859398174        7.52266217554042       -1.33540896268665
C           -1.61035832456830        8.28392103351523       -1.49072771175018
C           -2.87418089355422        7.69196677629818       -1.68454099873587
N           -4.01132073749146        8.46367950250925       -1.83810177543732
C           -3.96279357674545        9.92728584717491       -1.81225639518016
C           -5.33236142657042        7.86215045010100       -2.03265877947514
C           -2.93532471939975        6.28472592744253       -1.71553472201916
C           -1.81160364289351        5.52495836165646       -1.56031618941142
N            3.06320936604227        3.50462991925447       -0.74562040423515
B            1.88605356596230        2.52351489005909       -0.92974189168066
F            1.34136882681119        2.69257373535004       -2.19619972091196
F            0.94772526344433        2.73933602157008        0.07150664572726
C            3.72424748457367       -0.69555728937732       -0.49745259085697
C            4.74953327370001       -1.61566319088204       -0.28274398859785
C            4.45052865190625       -2.95775378313491       -0.30604176827260
C            3.14743800433500       -3.40130425536203       -0.54151550978605
C            2.12168262670101       -2.51142352018763       -0.76005151722938
C            2.40454540028692       -1.14307271885695       -0.74153081596175
H           -0.21306860467458        1.07250249216725       -1.34422042006469
H           -0.43659092705555       -0.39362887857932       -0.38846862446860
H           -0.10963597977015       -0.50780920691084       -2.12248199161020
H            5.60746136954811        1.06700138072153        2.02160225514121
H            7.73250838707682       -0.01553138335398        2.56451787672634
H            6.97294064750353        2.12981640828012        3.68791386793190
H            6.97039759000223        3.25114113112559        2.32557737869054
H            7.83258997735851        4.60478005518192        4.12739228017136
H            9.29671138710661        4.07228541265045        3.30092291952504
H           10.20820314872132        1.96889528553923        4.11822671349412
H            8.74792790086988        1.18917986834114        4.74357335625932
H            9.67346861482824        1.82798434867923        7.12297453666311
H           11.23308964263487        2.00775742789681        6.33575458982353
H           12.09398053818826       -0.91115887249972        5.71664773801906
H           11.44537235358263        0.24866992702918        4.57974504121608
H            9.33874137723331       -1.25919587119371        4.39654977225036
H           10.18214001634630       -2.43797985226313        5.37752384690998
H            9.34589417332139       -2.07169190636270        2.25984513279644
H           10.90527841821540       -2.27376609358243        1.47653458276486
H           11.55094364064422        0.07173940473757        2.15680451371213
H            9.94731774467843        0.31501246400970        2.82490655479579
H            8.43977947905382       -1.00310980082385        0.53978362132814
H            9.05407663714097        0.62328911632535       -1.52049643761908
H            6.89002204255103        1.59188212946682       -1.99188890274749
H            7.16477469054256        3.53761481570302       -0.00333246060899
H            8.09297141652137        5.81271605387448        0.10735947751267
H            6.64124546640380        7.76823967688561       -0.19906707828095
H            4.23198688467949        7.48571172030091       -0.62440816410399
H            2.05529215492172        6.76739406168374       -0.94823897203914
H            0.42761680625180        4.22681550230278       -1.23181509629633
H            0.46082122647340        8.00760100925508       -1.18742445986214
H           -1.53225177422560        9.35583011948604       -1.46271425732889
H           -3.31278188620052       10.29191465289311       -2.60514839082561
H           -3.58302718522131       10.26991531664504       -0.85173322660544
H           -4.95068758330953       10.35798055522667       -1.95990726928866
H           -5.57945367175392        7.22529060699361       -1.18558970126344
H           -5.33905094801082        7.26601265416620       -2.94295583957912
H           -6.10397227917366        8.62370888581155       -2.11993406019441
H           -3.88455367724156        5.80265285286820       -1.86415972626863
H           -1.88046740997465        4.45099089408255       -1.58498204620907
H            5.75172297806593       -1.26900297198491       -0.10949617975420
H            5.23432172017685       -3.67850975785152       -0.14099227537517
H            2.94314982991222       -4.45920893383239       -0.55294702916213
H            1.11713149163297       -2.84924658754224       -0.94337943943070
