83
 energy: -16.252810239480 gnorm: 0.000718052469 xtb: 6.5.0 (97a52f5)
C            0.61003438104631        0.31486675773809       -1.12075158460536
C            2.02150758966556        0.27632959799907       -0.69921454070444
N            2.82069719979497        1.33530300101515       -0.62204401133703
C            4.12633042194755        1.01197223854304       -0.18570174645917
C            5.17080748415271        1.99774789933961       -0.06091297893343
N            6.46001115178993        1.71891584649764        0.16098237769170
C            7.19240015562641        0.43991909072253        0.21104806245140
C            7.17199816858882       -0.26188818549446       -1.14197905611362
C            8.60720213403009        0.64196696598906        0.70417876319380
C            9.05821497237393       -0.00215532574848        1.84642920683631
C           10.35142436778030        0.17892329380188        2.29156878871681
C           11.21091026441827        1.00555110068970        1.59928882061205
C           10.77525137382653        1.65016525563544        0.46102691748926
C            9.48170156524387        1.46843909817750        0.01735341793099
C            4.76311765192873        3.35494940827207       -0.25145610816806
C            5.49473202358078        4.54520027500077       -0.13494402520803
C            4.64302150913335        5.60187422572673       -0.44019146764385
C            3.38201969568065        5.08136436510309       -0.75399056934361
C            2.16794158840711        5.82221591877856       -1.14289731925615
N            3.48860596733421        3.74157956709983       -0.63089069290672
B            2.33958417897888        2.76421363431078       -0.91240094008560
F            1.97516841616244        2.86063574377892       -2.24885643234721
F            1.27401625478432        3.06424592986440       -0.07320067393577
C            4.10667896645099       -0.33934187984025        0.05449802435397
C            2.80761982035670       -0.84209485378330       -0.27081899257325
C            2.41811433365311       -2.20154863808288       -0.16789669937943
C            1.19245612288433       -2.79096376392537       -0.58323993368951
C            1.25371945650121       -4.14489287415422       -0.30598168019579
N            2.51644004979547       -4.36111105009418        0.29160670347000
C            3.22350367183219       -3.25261399666464        0.37910108233268
B            2.97933640118226       -5.73440818557316        0.80091900786244
F            3.18522386118151       -5.66391540674775        2.17152594738364
F            4.13506058395102       -6.10170655663159        0.12595353302743
N            1.87710904751656       -6.76595224516007        0.50921276088681
C            1.96010821020402       -8.06003047466243        0.79659460432985
C            0.76558403946958       -8.65928553127284        0.33685434784565
C           -0.02489166702741       -7.68837736594062       -0.22930293386304
C            0.66852743160102       -6.45113451916698       -0.12671547521892
C            0.31061730134442       -5.17366129728251       -0.55338255368351
C           -0.96359506652812       -4.90580654880030       -1.26412302876337
C           -0.96256288161384       -4.67071933460032       -2.65244007618608
C            0.31000370761211       -4.67568379860014       -3.42674450759372
C           -2.15689866674227       -4.41098084307661       -3.29761042440329
C           -3.36432910637670       -4.40205956374385       -2.61804058865862
C           -4.63910649397572       -4.10955628421518       -3.33018584322553
C           -3.35662134720844       -4.63382308704092       -1.25208523203390
C           -2.18354983502459       -4.87633705046659       -0.56216806902885
C           -2.22758792264168       -5.11903707407048        0.90661032857282
H            0.29826207327516        1.34531047897631       -1.29306509871230
H           -0.04000581332846       -0.10615787869916       -0.35369211642217
H            0.46365523592344       -0.23610331029984       -2.04970291208248
H            7.12256865014894        2.48760267300716        0.20704110097920
H            6.67569364948125       -0.17948615234834        0.95769984842840
H            7.69624068682173        0.33499999239052       -1.88691403386252
H            6.15559148837742       -0.40639370510381       -1.50620962426355
H            7.66020242733239       -1.23565477498699       -1.09335206637704
H            8.38905028967325       -0.64995178783285        2.38622200335491
H           10.68948769767650       -0.32549731390557        3.18178844518483
H           12.22139187718258        1.14696707269994        1.94638923110135
H           11.44576409782744        2.29389678229737       -0.08420587860318
H            9.14504583743290        1.96819703787976       -0.87448392260233
H            6.53051207029371        4.62933245229299        0.14671690169025
H            4.90261598903713        6.64763613612404       -0.43890327562494
H            2.34866228649359        6.42744319136493       -2.03125748830137
H            1.83955044050099        6.48087729647285       -0.33883523406670
H            1.35683328515452        5.12813035162680       -1.36432965615985
H            4.91423222544892       -0.93925133651702        0.42784684691601
H            0.36313801991272       -2.29581714674161       -1.05294160895154
H            4.20831516346663       -3.17940607596569        0.80585925517243
H            2.79709128098205       -8.53427898157788        1.28210504715067
H            0.51991028144741       -9.70628663976002        0.41478549163465
H           -0.99411169994915       -7.82933834868736       -0.67661767661098
H            1.03314650999623       -5.36584193338736       -2.99147569096008
H            0.75886126622167       -3.68226117906750       -3.44088385012408
H            0.14161658842113       -4.98428822461251       -4.45885445619229
H           -2.14960083598740       -4.21490578400170       -4.35499164348571
H           -4.55557679555733       -4.32767758885709       -4.39534104332411
H           -4.90977335868049       -3.05884477578849       -3.22208306612857
H           -5.45647742673285       -4.71202095439249       -2.93265956688463
H           -4.28787337515848       -4.61808525351404       -0.71430751647668
H           -3.03296265078685       -4.55173292009060        1.37406640168421
H           -1.29463527979182       -4.81946401620043        1.38458412033753
H           -2.39163071722623       -6.17555086206162        1.11987822310607
