114
 energy: -24.292531885290 gnorm: 0.000793828097 xtb: 6.5.0 (97a52f5)
C            0.94053276994112        0.36896863456433       -0.19009877436476
C            0.19472777462746        1.50364224849763       -0.29262840649454
C            0.81222230066081        2.84782918669212       -0.41023958920516
C            0.57277817728410        3.82619187766037        0.55422968134495
C            1.14737622880217        5.07357265007402        0.44715198847123
C            1.96461575540700        5.37047461414958       -0.62583031344375
C            2.20399465186195        4.41709018823194       -1.59585692757398
C            1.63221581369458        3.16806498026816       -1.49245750197192
C           -1.28065813598759        1.41332535937488       -0.34751813397148
C           -2.01908694403758        2.35481389452743       -1.06466286964315
C           -3.39395579849044        2.28565706606817       -1.11923008540353
C           -4.06284622458600        1.27635423401970       -0.45615697909125
C           -3.35147314835068        0.33833264625000        0.26505924941006
C           -1.97613344766560        0.40507012581379        0.32136511592743
C            2.38280371574717        0.25683520114690       -0.03817991190527
C            3.01213401520018       -0.95157245800361       -0.35196624538498
C            4.36913374693409       -1.10813903571345       -0.19969848777250
C            5.16382671329500       -0.06688533291392        0.27990189210105
C            6.62464621984160       -0.23651792647014        0.44645317992756
C            7.36046358463999       -1.00695729636292       -0.44948779982746
C            8.73271856483873       -1.18706750011736       -0.30295552809566
C            9.49433007088920       -2.03244489062930       -1.24917821713152
C            9.18659557086111       -2.05146343338650       -2.60965724899072
C            9.88697514914725       -2.84983581211338       -3.48255609589912
C           10.92296697639984       -3.67529387079424       -3.03500712255413
C           11.65128294575666       -4.49722591216084       -3.98984024842139
C           12.35616733897835       -5.63436739152517       -3.73576288003999
C           12.34278318209114       -6.28739537649080       -2.40347743107100
C           13.52743235003593       -6.47748430132442       -1.69271728448604
C           13.51506762601647       -7.07798390160259       -0.45303142729036
C           12.32310997697523       -7.50610337801695        0.09742034576426
C           11.14170386824252       -7.33576483327514       -0.59700584604227
C           11.14941680101782       -6.73528160030989       -1.83664040076433
C           13.11837400100797       -6.28883453607340       -4.82114595931686
C           13.27655343137294       -7.67466493394679       -4.83666945580926
C           13.98985072346400       -8.29557715222272       -5.83845781336577
C           14.56435146537773       -7.54599981752173       -6.84536505597061
C           14.42528761066790       -6.17239497022453       -6.84494318727445
C           13.71195086936705       -5.54860157107200       -5.84437640070088
C           11.24026390413499       -3.63724324438592       -1.67456639020433
C           10.54027953716607       -2.83965168954293       -0.80264357804149
C            9.36882242990890       -0.56911188578616        0.76931026361773
C            8.66683741954029        0.20651110807514        1.68649266883531
C            9.36164737126575        0.83487261649500        2.83234362274703
C           10.63383246809785        1.38788991551139        2.68628520706488
C           11.28692095320759        1.95253115917016        3.75580866341232
C           10.70291951988559        1.98080594452096        5.02574163409861
C           11.42106191075817        2.59375757497986        6.13330707138334
C           11.26445886425621        2.33991303260858        7.46186940105864
C           10.39828978929192        1.24108341674379        7.95537333344245
C            9.33977345215137        1.50487041627542        8.82403268930486
C            8.53831790581350        0.48440990112560        9.28658612096251
C            8.78086079654569       -0.81789739741738        8.89655096827275
C            9.83023315773416       -1.09860819858079        8.04392792206540
C           10.63393088600768       -0.08123155923046        7.57885845778444
C           12.02286039280266        3.12562525860311        8.45900417731700
C           12.40960797288393        2.54578594948304        9.66728934591622
C           13.11243189240033        3.26716668632355       10.60708222961112
C           13.44265908649080        4.58494887521440       10.36250800206546
C           13.06417733546457        5.17974540178839        9.17555145455674
C           12.36089506833477        4.46055836739644        8.23365371661539
C            9.41976551899688        1.44378568640025        5.16222104377919
C            8.76659111342072        0.88119071671566        4.09266363148672
C            7.29534773163172        0.36134620968979        1.50955021206841
C            4.53770677259557        1.13543824805099        0.60791873846361
C            3.18098173275894        1.29128757226864        0.45778027139081
H            0.41024048855842       -0.56601942784992       -0.23722999187347
H           -0.06498955575846        3.58921590371780        1.38856329806676
H            0.95881335025940        5.81895861324000        1.20258627821045
H            2.41428151419795        6.34673580008922       -0.70757417982312
H            2.84057927351063        4.64995070161135       -2.43393261174303
H            1.81696380797430        2.42088787600237       -2.24514225429837
H           -1.49763349465270        3.14127332489159       -1.58243586903944
H           -3.94809473166297        3.02066997471670       -1.68011744455484
H           -5.13857933304702        1.22248275836143       -0.49909039039516
H           -3.87360167434440       -0.44632733922491        0.78817092057239
H           -1.42964098070301       -0.31558945912136        0.90454465391035
H            2.41612963757182       -1.76819915767227       -0.72236347228628
H            4.82975614415447       -2.05144793320644       -0.43709818371716
H            6.85604603490605       -1.47936586659552       -1.27215321477763
H            8.39573279651057       -1.42014203429784       -2.97630457795599
H            9.63517548075461       -2.85145314155891       -4.52938989516923
H           11.60905334601256       -4.16684774253493       -5.01300771622656
H           14.45383592874002       -6.14128767780682       -2.12584295410876
H           14.43709824521874       -7.21327285489409        0.08859339447308
H           12.31526152586985       -7.97372900225943        1.06855563703687
H           10.21169654856680       -7.67131217287210       -0.16787061890717
H           10.23090964450490       -6.59837113867196       -2.38116875162526
H           12.82827458961951       -8.25898130402201       -4.05173071435438
H           14.09980609737682       -9.36784546051187       -5.83596216622887
H           15.12266498032255       -8.03210800048368       -7.62890686779238
H           14.87908799004899       -5.58616902256249       -7.62746049779198
H           13.62651305826091       -4.47585067291210       -5.83684762222097
H           12.05167664485818       -4.23919643738790       -1.30779347342267
H           10.78827479551429       -2.84438564227751        0.24465980654959
H           10.42791524255518       -0.69882275341238        0.89648944676137
H           11.10014851232166        1.37762729052207        1.71622502517388
H           12.26915995697406        2.37356694165272        3.62474966598429
H           12.17111452540945        3.31422847004553        5.85735847465873
H            9.15554797931061        2.52163528487654        9.12583374276101
H            7.72092993885569        0.70252583011199        9.95445133768389
H            8.15204543799180       -1.61492996401422        9.25873219492423
H           10.02048914706479       -2.11532595850930        7.74103310314811
H           11.45290718880178       -0.29483331517661        6.91364600056281
H           12.15344533411768        1.51783291763677        9.85725965204397
H           13.40454728104777        2.80198770163777       11.53448014498490
H           13.99263229115878        5.14912160274232       11.09806934292794
H           13.31676729872457        6.21046260809077        8.98673010947211
H           12.04911241789418        4.93688014347103        7.32045441858763
H            8.93614744027136        1.47728156536724        6.12166877603149
H            7.78791556603649        0.45340934509575        4.22582679449825
H            6.74092663421825        0.95258263044434        2.21493057722819
H            5.13320240016437        1.95369827375472        0.97418539219176
H            2.72147197915121        2.22142216404167        0.73750257729496
