105
 energy: -19.952737011734 gnorm: 0.000753291299 xtb: 6.5.0 (97a52f5)
C            0.88568361497045       -0.05082020483382       -1.03991839053702
C            2.33837033320547        0.12030821793754       -0.87032877640507
N            3.09661999162700        0.99539794051513       -1.53069971860407
C            4.45841428410759        0.93181587009328       -1.15564420513517
C            5.49449629804903        1.76695949800556       -1.70440579555109
O            6.80977573738589        1.71276048905295       -1.37397003846611
C            7.23589379685342        0.70879802474972       -0.45759194778755
C            7.56739203135536       -0.56665011033455       -0.90562167011853
C            7.77901847544896       -1.58646753787360       -0.00924143061794
C            7.68672674052864       -1.38373494045911        1.36399071999650
C            7.41561273927937       -0.08772928480344        1.82970435865724
C            7.22271706275736        0.93634880054666        0.91747928846528
C            7.26646684944319        0.23253870857421        3.29625843542285
C            7.02575529902800       -0.99701332526371        4.18493882161044
C            7.97555360768855       -2.13999742667168        3.79995455866975
C            7.74449152184288       -2.57372735731421        2.31591268736214
C            8.73127232580779       -3.71015478262801        1.90689371272377
C            8.69632144071625       -4.91996204459156        2.87683239678313
C            8.92030535576459       -4.46642271583698        4.34313447914482
C           10.35486520554749       -3.94791217610914        4.53440617109865
C            8.65677518268411       -5.52115827849414        5.42520365621377
O            8.77714464005436       -6.70831012382451        5.29784639687677
C            8.20102194317590       -4.77230943795075        6.66699794668827
C            7.77699579391937       -3.34458607250893        6.22091264925881
C            7.81921761028863       -3.40564410970325        4.67938461475414
C            5.04954259512643        2.71159475751979       -2.67030189214632
C            5.77995925883092        3.66911746247701       -3.38601235096886
C            4.89235573981414        4.34602254425497       -4.21253792403796
C            3.60877042949495        3.81409918541832       -4.02208118637809
C            2.35353874724454        4.22458787044180       -4.67744407767394
N            3.73687338748238        2.84386492331233       -3.09445650223648
B            2.56910847891079        1.98623176234792       -2.57947253222773
F            2.02498946760472        1.27596054106775       -3.64075627941387
F            1.62583763590111        2.81401303684073       -1.98583213079182
C            4.52440238614112       -0.04518810341128       -0.20075854870054
C            3.22378202563453       -0.58092107862379        0.01126541144352
C            2.98136302236796       -1.61308687287031        0.95005456974549
C            1.77805013557785       -2.30993984196619        1.24884558799941
C            2.06674642450545       -3.24699623020470        2.22796810450684
N            3.44279659183406       -3.09552524349988        2.52145024557341
C            4.00238770839606       -2.15542594735563        1.79247937257482
B            4.19240772599255       -3.92900797182713        3.57061991952416
F            4.65849496605692       -3.08932591830615        4.57347422641099
F            5.23482550489470       -4.60921723645443        2.95419421414423
N            3.20778752378443       -4.94080897769008        4.17490925627863
C            3.52684820426205       -5.84630953998538        5.09284687395701
C            2.35012455798219       -6.57592236030830        5.37382849390857
C            1.32814859656073       -6.08061800785554        4.59938061525240
C            1.85446928640060       -5.01888887212948        3.81400369553800
C            1.23962929217387       -4.20983114734046        2.85925057191342
C           -0.19074454965888       -4.36438555120919        2.49815964390689
C           -1.19843872228048       -3.86853314788776        3.34698132426493
C           -0.85404152208648       -3.18918722294576        4.62684408026065
C           -2.52424210209245       -4.03515711258718        2.99366713521305
C           -2.89045109662358       -4.66626203429537        1.81564186198583
C           -4.32462960407225       -4.80129880415713        1.43812527263426
C           -1.89173984453767       -5.13264436417189        0.97612265853027
C           -0.55387587248721       -5.00657116327194        1.29902839976012
C            0.48458415879982       -5.52644228148911        0.36635480641115
H            0.50408225062945        0.67007827745560       -1.76351162724481
H            0.36077065062227        0.10803868047632       -0.09792350881075
H            0.65044382346565       -1.05038049362955       -1.40548059565087
H            7.59054431138305       -0.75015598992522       -1.96509729911446
H            7.97108462486553       -2.57470939976710       -0.38646006735741
H            6.97888153584561        1.92230344925495        1.26779406391827
H            6.44610177614427        0.95043535529139        3.41962179574329
H            8.16876649720301        0.75761415290365        3.63017868619386
H            5.99194018469992       -1.34304546632226        4.07971420702475
H            7.14548659429684       -0.74817112264136        5.24679491340643
H            9.00560623315975       -1.77056526133557        3.88589299377663
H            6.74228750307852       -3.02712576799447        2.29160609145534
H            9.74173194246991       -3.29510982325256        1.84988289845950
H            8.50795636684244       -4.05539171649171        0.89138321432972
H            9.45266461405232       -5.66601471102582        2.60978986986536
H            7.73069691983880       -5.43154941079627        2.80663097220158
H           11.06935560779692       -4.75892376819321        4.39977558777649
H           10.49490932292290       -3.54697265996475        5.53682533417066
H           10.60703205226297       -3.16454669421246        3.82350432696348
H            9.01126542038441       -4.74271971670306        7.40212352017982
H            7.37072742495416       -5.31464022895290        7.12959493797909
H            8.47368736597738       -2.58148673975645        6.58202125154416
H            6.78223418323219       -3.07044943493038        6.59152881329710
H            6.86075019596831       -3.85418020914999        4.37086753068057
H            6.84008842471222        3.83840591365294       -3.29889257923522
H            5.14003613602844        5.14604700811627       -4.89049056471297
H            2.45168349779328        4.19424412680262       -5.76287394970238
H            2.07652222221918        5.23771745308472       -4.38534785435746
H            1.54155505624336        3.55541340461525       -4.39106305735072
H            5.40408476555603       -0.38034662420385        0.30893572325285
H            0.81759621164346       -2.15858800261709        0.79143715620114
H            5.03429292862576       -1.86188173595913        1.84132305812907
H            4.50802082719073       -5.97744221990354        5.51834081175551
H            2.26928062134149       -7.38788066654313        6.07865268611025
H            0.30998358496637       -6.43021868521379        4.57781315492071
H            0.12461116284374       -2.71208652492271        4.57000480048031
H           -0.83336648804990       -3.90325705403437        5.45040018806257
H           -1.58301101992885       -2.41533150694609        4.86903923801898
H           -3.29197804143375       -3.66076774530830        3.64711124287440
H           -4.96008073441999       -4.86397548013320        2.32202937304369
H           -4.49196704493352       -5.70184844667968        0.84653651456582
H           -4.65073292998761       -3.94446214346912        0.84789484585209
H           -2.16553583693170       -5.60848755022430        0.05135243060322
H            0.12285882580895       -6.39929024914237       -0.17781241468448
H            1.38454023871108       -5.82495745234289        0.90452257052498
H            0.76503177094868       -4.76635179088818       -0.36310312286249
