62
 energy: -12.237661749673 gnorm: 0.000581706113 xtb: 6.5.0 (97a52f5)
C            0.96047296873697       -0.30296285008799       -0.05055827482270
C            2.40547768311422       -0.01076405080740       -0.04014888012033
N            2.96496616628054        1.21245542872550       -0.00959938648166
C            4.35916971284131        1.14643331886482       -0.00155825544604
C            5.20814290981044        2.27547791379134        0.05194411995647
C            6.67815041897933        2.15743592092571        0.06359888957715
C            7.36841215528197        1.54640159263429       -1.02608682788363
C            6.68362338510647        1.06046871345123       -2.16148583965872
C            7.35348265506831        0.48765576321405       -3.20220453056540
C            8.74781541985468        0.37468364194980       -3.17137281132686
C            9.45194651212498        0.84372714041492       -2.10448980543590
C            8.79036750597307        1.44824946080519       -1.00640025593845
C            9.50436198973897        1.95874472487696        0.07787635226048
C            8.85814131596500        2.56277876943641        1.15645978292134
C            9.58662829788422        3.07408778841640        2.25960202876673
C            8.94405130079796        3.63760612548111        3.31967866876196
C            7.54712876358973        3.71562545389221        3.33853471763084
C            6.81458177803181        3.23858603180036        2.29188059591237
C            7.43640373166145        2.66229383233535        1.16244276977071
C            4.55595971513630        3.52802762599377        0.10218728242208
C            5.09561188508900        4.84319919514527        0.12144498672950
C            4.04961414320501        5.73569179256312        0.15955392146839
C            2.83047460172999        5.00696727345265        0.15681116711076
C            1.48357385047050        5.49280348516760        0.18943950381536
C            1.14375603685664        6.78322775593909        0.24206144538844
C           -0.28751437955676        7.27472658253844        0.28376015242870
C           -1.02933622627017        6.82848270814391       -0.98928712974306
C           -0.99860070154828        6.70504872899671        1.52492655179757
C           -0.29690916769225        8.81343334349459        0.35996355781023
N            3.18390699808490        3.69310941164338        0.11689264370765
B            2.17963980207679        2.53150073975881        0.05788766762841
F            1.39890903616387        2.65711016330831       -1.08493335714941
F            1.39979140039439        2.54028339243914        1.20815279908553
C            4.66500920592239       -0.22977118764983       -0.01848292234693
C            3.46983329718237       -0.93110105408465       -0.04711519654939
H            0.38653627642005        0.62404998236081       -0.04356436024079
H            0.67478177420683       -0.88449975655189        0.82621011848509
H            0.68346976951345       -0.86648912807198       -0.94175408674469
H            5.61277207038715        1.15118563516804       -2.19975321175386
H            6.80843909979262        0.11969392891505       -4.05596184925037
H            9.26434413259865       -0.08104704012533       -4.00016185973760
H           10.52520807225942        0.76466870967786       -2.08519778937761
H           10.57664137558736        1.88563767490360        0.08207890726212
H           10.66081918485287        3.00730368125870        2.24897510856479
H            9.51074487072955        4.02180072184589        4.15191145102675
H            7.04981204853542        4.15550698995845        4.18739263244756
H            5.74108509570924        3.29581911053715        2.32016209878892
H            6.14404061268952        5.08784583118271        0.10710710773709
H            4.13844919634128        6.80848940879348        0.18276386609228
H            0.71128874156948        4.74558171357294        0.17334671345061
H            1.92153669601720        7.52487301839827        0.25866043724859
H           -1.06183024564650        5.74248177611400       -1.06459399535199
H           -0.53186271012022        7.21104786235176       -1.87968333610023
H           -2.05506287138737        7.19537636723759       -0.99147201380276
H           -1.03816973587534        5.61724833637416        1.49059663059879
H           -2.02094933407180        7.07505528697662        1.59265111050634
H           -0.47411722322089        6.99232390295394        2.43544954996891
H            0.19873408481489        9.24831113396937       -0.50722228518065
H            0.22035409566154        9.16104854384855        1.25352596797856
H           -1.31631655085374        9.19619942749297        0.39150719602592
H            5.65544940379616       -0.65202708739575       -0.00692081544716
H            3.36363790160685       -2.00304070871586       -0.06554942467874
