49
 energy: -10.116267460516 gnorm: 0.000471740298 xtb: 6.5.0 (97a52f5)
C            1.08833947878082        0.42187272040898       -0.17940095536242
C            2.51011275799995        0.08255959433750        0.01188197662197
N            2.98577278491141       -0.96684571731702        0.70987774279836
C            4.38201428725917       -1.00874242890193        0.69797634705609
C            5.15460582703551       -2.00900279502854        1.33102088828542
C            6.62883024056223       -2.00133932677812        1.29796788609484
C            7.36206199582378       -0.90690096265317        1.84795430889154
C            6.71603360426898        0.18019998081050        2.47546018964533
C            7.42596065037280        1.21784638569611        3.00449881576812
C            8.82315550743321        1.22442624254905        2.94329323337829
C            9.49048397906129        0.18924931310898        2.36199982730791
C            8.78674009147828       -0.90721459470892        1.80525922871498
C            9.46146788712626       -1.98484312750461        1.23128822097814
C            8.77301752509095       -3.07005009322153        0.68877145664798
C            9.46244259120934       -4.15735494908151        0.09724274235672
C            8.78049308396807       -5.19889744043997       -0.45496206360701
C            7.38198567070857       -5.20834903981431       -0.45062199149867
C            6.68576812873231       -4.18023919398295        0.11405282901059
C            7.34801934334474       -3.08699784564750        0.71327269865618
C            4.42053693691147       -3.01643318364020        1.99755048460676
C            4.86028745397126       -4.12233608617878        2.75116978608745
C            3.73915744913059       -4.79919882037493        3.20986047114476
C            2.58933472234933       -4.12636439050188        2.75963493489254
C            1.17564160691939       -4.46906667110551        3.00366078695373
N            3.02572074838921       -3.07072424422006        2.04685036370856
B            2.10903032228785       -2.02404107016861        1.39712278404611
F            1.34455528712450       -1.41218560599312        2.38208343282840
F            1.31138055580051       -2.64464372331912        0.44448864911491
C            4.77853499219494        0.09827419989212       -0.07764556954425
C            3.63251478908872        0.76368997318776       -0.48918844056187
H            0.45435282057762       -0.30986758487429        0.32203486847728
H            0.82817349532720        0.42674458586894       -1.23798420512344
H            0.86362648891552        1.40510990619761        0.23419703316038
H            5.64247608263953        0.18115594657440        2.53644850011537
H            6.90991021421593        2.03908441298741        3.47412551893990
H            9.37155220871398        2.05136506356923        3.36358622114811
H           10.56601604178223        0.19100584645128        2.32232109728367
H           10.53585676214515       -1.97853774316999        1.20580955234010
H           10.53859536609330       -4.14664075533044        0.08620506810945
H            9.31805677244321       -6.01846656126562       -0.90276727271013
H            6.85389500438599       -6.03430989425830       -0.89800770513456
H            5.61061507543872       -4.19322960985165        0.10309065406573
H            5.88753026794177       -4.38736226601611        2.93495552703996
H            3.74133566820507       -5.69078196371805        3.81449548995801
H            1.08462620055721       -5.37981446680165        3.59593772372543
H            0.65215177174045       -4.62009883587250        2.05934262796955
H            0.67477841718568       -3.66107610609003        3.53731141241698
H            5.79437578066883        0.37060827451508       -0.30826773244062
H            3.59965526168817        1.65274465167677       -1.09666544436221
