69
 energy: -14.475784986769 gnorm: 0.000689152748 xtb: 6.5.0 (97a52f5)
C            1.02868908238545        0.80539484665801        0.03503584346698
C            2.44035520395049        0.49638426774658        0.32788618110479
N            2.88453174324505       -0.34593126144765        1.27463413530059
C            4.27844121906835       -0.43845808823003        1.28184646231417
C            5.01175194639699       -1.26816158673018        2.15330905205945
C            6.48166713676416       -1.32602479637049        2.12366158746865
C            7.15877803592932       -2.54983247908506        2.19310455207479
C            8.52735417408811       -2.60508654256402        2.16791531177559
C            9.29814836137102       -1.43646228044814        2.07198679074492
C           10.77784797444217       -1.49334182046333        2.04994352171117
C           11.45933802075741       -2.23213485572505        1.03919940093443
C           10.75076759153683       -2.90007841935983        0.01574569281967
C           11.39714319808997       -3.62295864574878       -0.94400847722302
C           12.78885612306460       -3.71590319928920       -0.93365863645354
C           13.51153401136416       -3.06766424293644        0.02444803402347
C           12.88248081197466       -2.29220985116274        1.02454879164159
C           13.64421899601527       -1.59720875501060        2.00522015976741
C           15.12704141245148       -1.64793384344592        1.98079917619551
C           15.84822671907629       -1.15389128586280        0.88668449494939
C           17.22288612621446       -1.19910006588684        0.86920529030169
C           17.91372250297634       -1.73588070548561        1.93846814051904
C           17.22346909135412       -2.22984542098002        3.02847087723510
C           15.84881036540867       -2.18825296871719        3.05250523502467
C           12.96577195720600       -0.85148641828837        3.00939109103658
C           13.68022487767465       -0.12539632846370        3.98902767316799
C           13.03642768421189        0.57081319990363        4.96939169782437
C           11.64266245047421        0.57818249144514        5.02349834697232
C           10.91606889413072       -0.09371038735427        4.08434080870900
C           11.54233271989444       -0.80873349121100        3.03928418699726
C            8.61805067855879       -0.21118271242867        2.00131885567277
C            7.24940483181190       -0.15898037890551        2.02632546599597
C            4.25083941447245       -2.03870706360006        3.05489842411973
C            4.65120407798217       -2.92590090725350        4.08125976326050
C            3.51177473666742       -3.40729484102815        4.69780988402477
C            2.38409905060341       -2.82257771566911        4.08569269403945
C            0.96062980876853       -3.05032395036596        4.39836191645898
N            2.85549162358345       -2.02025289669229        3.11830126433882
B            1.97195463633031       -1.15000546834835        2.21229074585685
F            1.23463408798269       -0.27149104909482        2.99733812560726
F            1.14564165287836       -1.97102259581067        1.45374012455005
C            4.70586149168320        0.41112334228267        0.23475229459983
C            3.58405127616141        0.97899971555916       -0.33940918956564
H            0.38260763555497        0.39717298033067        0.81261295431397
H            0.72612387458884        0.37079270846966       -0.91786502650049
H            0.86571087392890        1.88231881841135       -0.01118113394222
H            6.58520651880939       -3.45884582867036        2.24311781869620
H            9.03150109839863       -3.55365963339056        2.23522319219020
H            9.67849478046778       -2.82612850529746       -0.00907705215933
H           10.83352306698021       -4.12645628938464       -1.71230301675101
H           13.29171003014134       -4.29783046695025       -1.68861611649008
H           14.58368428064800       -3.14900594173266        0.02683272968874
H           15.30880928292760       -0.72502963744935        0.05974551487895
H           17.76255696264122       -0.81266160040116        0.02021088153563
H           18.99080893050262       -1.76932692595838        1.92255581194314
H           17.76348017693492       -2.64997651230912        3.86121207708649
H           15.30907155225137       -2.58258872418586        3.89618214258808
H           14.75484530562378       -0.12083100769942        3.95269562086030
H           13.60337303892257        1.11341466141375        5.70800105260894
H           11.14092479860118        1.11897892707387        5.80909798519498
H            9.84256736969034       -0.09040342756861        4.14281209303230
H            9.19214017117570        0.69522512189327        1.91528624734777
H            6.74712952782911        0.79213898375643        1.99591545489633
H            5.66591131782238       -3.16478270269120        4.34972548378443
H            3.48165825106677       -4.10496891283340        5.51826762097925
H            0.83684337646739       -3.46336674641568        5.40019499883910
H            0.51754292531861       -3.74453041074694        3.68365968258842
H            0.40540676572812       -2.11321749005988        4.34401116173612
H            5.72420112658915        0.56452841665757       -0.07856746237995
H            3.57504116140137        1.66702960160912       -1.16850650795420
