116
 energy: -24.486087995865 gnorm: 0.000652190097 xtb: 6.5.0 (97a52f5)
C            1.19944743351816       -0.32909624513659       -0.78690866544076
C            2.61502611669565       -0.55311387334587       -0.43910626654782
N            3.07094021319008       -1.33490984006670        0.54874032374880
C            4.46420558287041       -1.34028502636641        0.61453200115487
C            5.20893157263534       -2.09192543072158        1.54408660934588
C            6.67916642160519       -2.06271105215873        1.57241334913365
C            7.42251038087731       -3.23641589935052        1.74102896457532
C            8.79288852890236       -3.21132096768959        1.75701009442270
C            9.49784165663815       -2.01311005594693        1.59238870636831
C           10.97012850824687       -1.97180661789160        1.60813847087293
C           11.73889157340613       -3.00612850610931        1.06986418508232
C           13.17865797891652       -3.13040973841393        1.37914825422669
C           14.08840050658736       -3.50663566543222        0.38736577915735
C           15.42934060521503       -3.63544317163074        0.66965456362799
C           15.89462788553468       -3.39914232849119        1.94835130311444
C           15.01170294818274       -3.03685962864296        2.94655789367145
C           13.67009363354090       -2.90679263742075        2.66847726064039
C           11.15151510883385       -4.00719383162253        0.15402740209703
C           11.49075747955547       -5.35831916876604        0.26490452250336
C           10.95268363702120       -6.29391709012544       -0.58923066737086
C           10.07001168790943       -5.90447838288898       -1.57759295970458
C            9.72983806280443       -4.57271769053087       -1.71231604325922
C           10.26564464139310       -3.63358980349362       -0.86082039953066
C           11.61454838517019       -0.78217132277976        2.20859088745466
C           12.69330620544858       -0.15010732602294        1.58481344965078
C           13.27998650870233        0.96220635354280        2.14431387272665
C           12.80158271870884        1.47356118090167        3.33459336695999
C           11.73031731768302        0.86950056801745        3.96298800473958
C           11.14090076531115       -0.24350305485035        3.40730629307593
C            8.75379244015105       -0.83733158031076        1.44127725759597
C            7.38302944472969       -0.86138420871118        1.42948394548515
C            4.45852654250506       -2.88352852082305        2.43864968635260
C            4.87857170925023       -3.72090867748518        3.52092753530050
C            3.76727682224949       -4.26938123756456        4.09831300805475
C            2.61221451887629       -3.78860140165090        3.40783841352461
C            1.24566934834441       -4.07465404888617        3.63213383954890
C            0.78398432710207       -4.92353247557313        4.58304578009147
C           -0.59926971582675       -5.23238545413334        4.81641650601111
C           -0.94569273495140       -6.16409813644094        5.80581811164717
C           -2.25504972693568       -6.48539863195998        6.04790353016330
C           -3.29572197587956       -5.88746921510744        5.32375727827967
C           -4.70438895028886       -6.24119548784108        5.55467093452549
C           -5.18362726137422       -6.57595374860310        6.82512737565921
C           -6.48085785478971       -7.26287652002116        6.99344969155115
C           -7.33650757027256       -6.91952677098400        8.04390420550924
C           -8.54217487428543       -7.56148745363110        8.21255147640885
C           -8.92105085436608       -8.56533144922024        7.34293508012370
C           -8.08624900578657       -8.92849336607400        6.30442266188826
C           -6.87985954585982       -8.28920542208583        6.13212998746330
C           -4.42987195593557       -6.23639237559409        8.05003828347995
C           -4.35418177819198       -7.14191667039156        9.11197369674458
C           -3.66676950455552       -6.82715334654988       10.26194131457450
C           -3.04427607016263       -5.60020832592952       10.38345822437927
C           -3.11454678111682       -4.68629043924864        9.35029336418967
C           -3.80060860088310       -4.99673127985908        8.19831275609675
C           -5.61275530428260       -6.23407001213484        4.38490137655845
C           -6.87798292324764       -5.64558444672438        4.45441575002396
C           -7.71515728554466       -5.63987494902384        3.36187366271291
C           -7.30881685398506       -6.21570940131575        2.17422048212191
C           -6.05878924438742       -6.79550701364326        2.08175869832835
C           -5.21834107516105       -6.80365590770299        3.17189644581434
C           -2.94769985273843       -4.96328013284528        4.32938580942339
C           -1.63889904562389       -4.64126653106097        4.08303856445413
N            3.08491288196990       -2.95909411699568        2.43451952519701
B            2.17742057945152       -2.17619343140615        1.47327022801884
F            1.35113982519558       -1.33187199602259        2.20575316002442
F            1.43859088697411       -3.07082809469821        0.70771807270039
C            4.88237920384533       -0.49671302776654       -0.44516786566815
C            3.75524440119006       -0.01712046011105       -1.07761754197303
H            0.54980572615017       -0.85904039837744       -0.08989994322464
H            0.98326488039301       -0.69084681526310       -1.79238417945132
H            0.94996505312793        0.73134682988526       -0.74316593336274
H            6.90203342324421       -4.17409985571586        1.82820610995793
H            9.34422526836109       -4.12484640434418        1.89478401746840
H           13.72564078237295       -3.68761556615996       -0.60966060156866
H           16.11829907539937       -3.92058640293015       -0.10852057615234
H           16.94509151621377       -3.49947551653591        2.16746441168834
H           15.37422266085561       -2.85570054254536        3.94517656186576
H           12.98140483958316       -2.63245840314860        3.44846798766812
H           12.17558432720756       -5.66079970584890        1.03825057293948
H           11.22013229552688       -7.33287996781617       -0.48650570333703
H            9.64948190511438       -6.63866320943707       -2.24518156065426
H            9.04323467144636       -4.26874404590711       -2.48539489740369
H           10.00513565180174       -2.59498612307839       -0.96891703778545
H           13.06129590914534       -0.54583670342045        0.65413936499717
H           14.11424154947441        1.43532034717605        1.65269981589775
H           13.26273572973448        2.34414213103297        3.77159617850507
H           11.35503434294707        1.27080278664497        4.89014275342218
H           10.30778868260132       -0.71708233472164        3.89738706871082
H            9.27708657341819        0.09598755107719        1.32569333289638
H            6.83056037373633        0.05708982385929        1.33452815722004
H            5.89484100972709       -3.86840856114190        3.84357109470362
H            3.76025361198409       -4.93955848553423        4.94106374473043
H            0.55071948953399       -3.57903070237115        2.98123438775660
H            1.50412442522867       -5.41613736271927        5.21140567509816
H           -0.16279783119480       -6.63308582419734        6.37685913401020
H           -2.49738014997700       -7.21561077677431        6.79984330190543
H           -7.04207803994294       -6.13467071476894        8.71897381752626
H           -9.19261361555327       -7.28000717385894        9.02446134324258
H           -9.86577429627877       -9.06666504610323        7.47599033103618
H           -8.38032701034512       -9.71422129723624        5.62793462167729
H           -6.22571389848042       -8.57884144055190        5.32830695876350
H           -4.83739883247309       -8.09878453317913        9.01507416247014
H           -3.61396228377668       -7.53901499513793       11.06939391235800
H           -2.50612823501943       -5.35597916754375       11.28474101667487
H           -2.63102054473774       -3.72796961650655        9.44668985511272
H           -3.86054700307663       -4.28272934802403        7.39531121292289
H           -7.19158780319794       -5.19353952351652        5.37936727046596
H           -8.69016218311481       -5.18623772001153        3.43311701580763
H           -7.96624527188447       -6.21152524539255        1.32020492421915
H           -5.74131142925691       -7.24290310165081        1.15408976418047
H           -4.24555154485478       -7.25915064285303        3.10296186615840
H           -3.73268111020534       -4.49687635437842        3.75964079217267
H           -1.40855596641001       -3.92407064942948        3.31609943242219
H            5.90146029583096       -0.29154581895290       -0.72487944592915
H            3.73710232903318        0.64618864698487       -1.92655295864313
