97
 energy: -19.771561282269 gnorm: 0.000443132680 xtb: 6.5.0 (97a52f5)
C            0.71988669484234        1.03366611796019       -0.59145554222400
C            2.17146274549251        0.92535331696376       -0.36043831031416
N            2.90083923327184        1.81397124457012        0.30307794349680
C            4.25841948848799        1.45441545246413        0.38109099724142
C            5.25340979014453        2.23827466502102        1.01859580329893
C            6.67394623739437        1.87032507725207        0.97364912161119
C            7.50583849939679        2.01690283263881        2.09300943053763
C            8.83534575325609        1.69628259849915        2.03384987234128
C            9.41141674378809        1.21264349637666        0.85203896684826
N           10.79325209952216        0.90677994528509        0.77842662358645
C           11.52835007848115        0.53655264055522        1.95208695079689
C           12.84590070577992        0.96166475036264        2.12863493140405
C           13.55712062415849        0.60327354250417        3.24985307438047
C           12.97178266295301       -0.18981059191680        4.21783123971894
C           11.67045411227022       -0.62535270105112        4.05744685862229
C           10.95570969844498       -0.26882838001778        2.93766519971130
C           11.48731356246338        0.97470331299744       -0.47504819452815
C           12.46868845547376        0.03642369162645       -0.79781946143731
C           13.13874018297276        0.10329391123082       -1.99708119303521
C           12.84815913314656        1.10886923352529       -2.89885297334629
C           11.88429946049414        2.05049086884365       -2.59391508442815
C           11.21146909671106        1.98665018564101       -1.39609376405082
C            8.57966563021131        1.05558456207514       -0.26354726969215
C            7.25079576356414        1.37480375461986       -0.20464085089792
C            4.79965718777780        3.40851722530184        1.64882957026455
C            5.50860651974039        4.44023632061057        2.31914940973605
C            4.59892764748675        5.39008541010296        2.71902228389744
C            3.30743743603915        4.98543027301735        2.30428943323528
C            2.03647478941349        5.71214867876552        2.47912371059850
N            3.46599281000022        3.82166685998269        1.66825066635967
B            2.32351007255267        3.06848106752524        0.97233535805279
F            1.76200433137246        3.88702725815507        0.00043083773748
F            1.38247649435291        2.68877981726611        1.92104622365847
C            4.35215838123370        0.22439121121525       -0.26253664527329
C            3.07591532030050       -0.12363652923897       -0.74712029283380
C            2.77808282049678       -1.32089753015435       -1.47718570418696
C            1.57665223298748       -1.64809744164710       -2.13752276207545
C            1.73897564937834       -2.89632491382239       -2.73373118068990
N            3.04210837653923       -3.31076471295964       -2.40395665926821
C            3.68158213666088       -2.41065713151972       -1.67979891062694
B            3.61972248617866       -4.67096976226436       -2.82684385696979
F            3.89199234601547       -5.42032061915463       -1.69036979831089
F            4.76018811382404       -4.46217711418813       -3.59001130468371
N            2.57294231102223       -5.41033625227633       -3.67740339968840
C            2.75511061665606       -6.60362009688412       -4.23239268167875
C            1.57212829124298       -6.90994582236060       -4.94191776633420
C            0.68899197466704       -5.86798256773320       -4.79333939490655
C            1.31153362336754       -4.88717134155490       -3.97474840061283
C            0.84835750914517       -3.64532640034632       -3.53335215263109
C           -0.48213641609527       -3.11596199796379       -3.92058010312904
C           -0.58227332279684       -2.09425637355284       -4.88392795169248
C            0.63783355737297       -1.52454291316948       -5.52124953337824
C           -1.82843890158788       -1.60410244289009       -5.22634303368566
C           -2.98892920580755       -2.10915336673423       -4.66182114528379
C           -4.32638860744897       -1.57863228167812       -5.04674056228460
C           -2.88161429345503       -3.11926741884417       -3.72002698908818
C           -1.65490740590812       -3.62451334884974       -3.33161093449445
C           -1.59226705524380       -4.71246143042214       -2.31650543812708
H            0.31844773963707        1.89489001256387       -0.05672426935999
H            0.19824854884097        0.14572049426078       -0.23411421673470
H            0.50119174254610        1.16904984329083       -1.65062367737869
H            7.07785773065212        2.36397709679685        3.01705865509856
H            9.46195771373275        1.83731395555018        2.89649908302476
H           13.29446529101829        1.58665039598239        1.37661329580160
H           14.57246022908541        0.94225872893380        3.37427144100718
H           13.52992109522515       -0.46968057850731        5.09608380650132
H           11.21550889669758       -1.24756639622174        4.81053725492074
H            9.94908952491776       -0.62271510087800        2.80031654233926
H           12.68494263568955       -0.75041257660995       -0.09681533506887
H           13.89081626989167       -0.63092049083500       -2.23498335962000
H           13.37354312986711        1.15964191637856       -3.83830890315578
H           11.66057933117719        2.83743978963250       -3.29532482656837
H           10.47297251154422        2.72856206503620       -1.14790686884500
H            8.99999805781130        0.66477721842711       -1.17317496975603
H            6.63757939016544        1.27977807440615       -1.08358434583238
H            6.57504702551969        4.48981640093765        2.45617864176905
H            4.82433140302864        6.30318156264796        3.24470570986583
H            1.89140816656558        6.00137258167436        3.52009325246553
H            1.19734905225651        5.08334551212903        2.18062307208244
H            2.01773385736030        6.61326219332164        1.86609231952910
H            5.24371600031497       -0.36711980727091       -0.36587624902351
H            0.69185863609641       -1.04277850466602       -2.20543446007044
H            4.68478661212605       -2.51578319605897       -1.30529483190057
H            3.64969341308046       -7.19792516075939       -4.14465288876984
H            1.39545507281957       -7.81035080573703       -5.50830592324274
H           -0.29738964202672       -5.79496143923792       -5.21902140905844
H            1.41875778446375       -2.27898980091567       -5.62026148859106
H            1.03767674904462       -0.70246052037692       -4.92717825765743
H            0.42021064330322       -1.14414444739512       -6.51966439099109
H           -1.89885190875083       -0.81502822980326       -5.95358068115396
H           -4.24841456730915       -0.85160275079748       -5.85558856400583
H           -4.80606209048076       -1.08652111117683       -4.20010972382117
H           -4.98024595094476       -2.38316487745912       -5.38488034921183
H           -3.77742743267974       -3.51726558927834       -3.27749777985058
H           -2.39688655724231       -4.61549835366058       -1.58701650575743
H           -0.64896769766707       -4.68936069746051       -1.77032530351077
H           -1.68333268755526       -5.68996524656572       -2.79069875671345
