52
 energy: -9.754569760192 gnorm: 0.000601461717 xtb: 6.5.0 (97a52f5)
C            1.17553497892841       -0.21055881882993        0.98404842931664
C            2.59547813533114       -0.43827271457420        0.65753496550634
N            3.06774745802022       -1.29240310848612       -0.26471102541584
C            4.45738962479112       -1.26145110611770       -0.34678812872394
C            5.21552080207358       -2.03137043897664       -1.26000932754928
C            6.67709139879783       -1.97174314124360       -1.30258365547341
C            7.37609457298973       -1.99430281415462       -2.52235049177446
C            8.73913038650978       -1.93378209652410       -2.56367545821931
C            9.50889165997866       -1.84943074973652       -1.38224596429558
N           10.89045053922915       -1.79305915341496       -1.42206012063636
C           11.67194891042184       -1.70081005302781       -2.67811536878940
C           12.31675011250850       -3.05057763663495       -3.00632778169064
C           13.22119529614832       -3.50294088367883       -1.84638095034211
C           12.44831415938268       -3.49958567425055       -0.51446948625697
C           11.76734256203155       -2.14526262517786       -0.27587032580973
C            8.80246909989291       -1.83079939943474       -0.15922526780611
C            7.43917553328919       -1.88810048376184       -0.12400945137126
C            4.46901493699266       -2.86206978197768       -2.12845252653289
C            4.88826513160130       -3.79973415321038       -3.10068483039898
C            3.76105858397670       -4.38037490498969       -3.64932817582233
C            2.62362089510820       -3.83559196307241       -3.02249029248838
C            1.20821266571974       -4.15225349330946       -3.28912875107381
N            3.07886350898973       -2.94392732325961       -2.12770566197994
B            2.17597985832498       -2.15633633278722       -1.16770114304366
F            1.45689307819481       -3.04749356749793       -0.38090566642690
F            1.33387740270173       -1.33208567723300       -1.90370218500264
C            4.85568501247285       -0.28558362461522        0.59632031224336
C            3.71938484030294        0.20740831979947        1.20820660538857
H            0.54636210574380       -0.92750940966110        0.45620062543892
H            0.86530106277506        0.79201240828534        0.68950912979067
H            0.99745609987108       -0.32481442294882        2.05353899279158
H            6.81410818840058       -2.02483625193724       -3.43933299265906
H            9.23167702253956       -1.97870035040784       -3.51719627843298
H           12.44828973489300       -0.94339605135401       -2.52895770398246
H           11.05338260531511       -1.32275438402186       -3.49628227730024
H           12.87567955347111       -3.00095954231760       -3.95058614633892
H           11.52773411388461       -3.79540604631463       -3.16310091227139
H           14.08225950558869       -2.82790482690888       -1.77027247386086
H           13.64379563710154       -4.49693140079007       -2.04841200694676
H           13.11093340801914       -3.75462600610699        0.32382507620277
H           11.68333122878444       -4.28484015083073       -0.53783389060283
H           12.51705060113913       -1.35491513220038       -0.16964374074799
H           11.20256485363915       -2.14913719900681        0.65894602747640
H            9.34139954905716       -1.74226337356997        0.76551320555431
H            6.92876915439019       -1.90399446638745        0.82304581048275
H            5.90687159372216       -4.04593116987579       -3.34669206833679
H            3.74544891452763       -5.13717257440147       -4.41609895251528
H            1.05253942519144       -5.22972498347983       -3.35018806727176
H            0.88137039837726       -3.70439687344657       -4.22788341472102
H            0.57629473547479       -3.76203916509312       -2.49077411803439
H            5.86353032351572        0.04575016830545        0.77869513824685
H            3.68706903983012        0.97213460464706        1.96653276250341
