50
 energy: -9.455591840965 gnorm: 0.000536539574 xtb: 6.5.0 (97a52f5)
C            1.17187518923079        0.43455006119601       -0.17194187090368
C            2.59981671715870        0.42485697826113        0.19514445890965
N            3.11128139965184       -0.01038836683652        1.35738283079090
C            4.50018924802457        0.07871053330712        1.38842020462657
C            5.29804757107563       -0.35734060619400        2.47250644193189
C            6.75823506947871       -0.26178435349084        2.45374911858589
C            7.56366405202286       -1.29499971411855        2.96446677473269
C            8.92594423139775       -1.21819660313756        2.93335035705643
C            9.58642557691348       -0.09339979267195        2.39196829460825
N           10.96779708594558       -0.01808350771108        2.35236020972901
C           11.72812581216613        1.19863028098929        2.01359867910228
C           12.47629524272044        0.98472272680560        0.70091261363600
O           13.35265597799190       -0.13272109814792        0.79711423961326
C           12.66391890466202       -1.33121666155069        1.14035159916676
C           11.87114045663946       -1.18424994962789        2.44143428322794
C            8.77408552393442        0.94733938214925        1.89027441985017
C            7.41214528403060        0.86172221754891        1.91784670769238
C            4.59262352759299       -0.90572277888771        3.56939554348821
C            5.04378071790341       -1.36169656715801        4.82972997533532
C            3.94123636671744       -1.76252644758190        5.55956351543936
C            2.78582740392202       -1.55693111722779        4.77964524067038
C            1.37837206561572       -1.81032325693331        5.14133018603534
N            3.20828460689577       -1.04193155399841        3.61517823041659
B            2.26384062773593       -0.60416388097032        2.48934858233710
F            1.39637586188621        0.36756656805051        2.96951865864399
F            1.57455023706112       -1.71142613743590        2.01374182693141
C            4.85832635179780        0.59621303472518        0.12197390738443
C            3.69831011413373        0.80936234360480       -0.59751213462003
H            0.55744730621379        0.19477657716763        0.69625128331266
H            0.96554380867447       -0.30506930521017       -0.94560774469985
H            0.86964426929532        1.41392586054197       -0.54295294987177
H            7.08659150397281       -2.17673024327711        3.35496642412284
H            9.50307064471598       -2.01706832840738        3.36082288613471
H           12.44557384829940        1.37589738706439        2.82086252174407
H           11.08129012214753        2.07919394231695        1.98604568933572
H           13.07517805645077        1.86007199802782        0.41797145375819
H           11.77519363076525        0.78812266620711       -0.11830949709843
H           13.41215369020118       -2.13170965953327        1.20738370615137
H           11.99809272897375       -1.58017315446095        0.30587106112513
H           12.54901465665761       -1.03008178639150        3.28606978101000
H           11.30645097793018       -2.09535541730560        2.65250848557384
H            9.23268341243851        1.81142907633390        1.44659624693344
H            6.81704671107153        1.68059055288666        1.55326780071454
H            6.06305501760223       -1.35796202992509        5.17613743863863
H            3.95230144672659       -2.15100105679714        6.56444378527922
H            1.29812505872601       -2.27320212108845        6.12500643495613
H            0.91189267195525       -2.47200514368337        4.41117784224940
H            0.81472968846045       -0.87721781023574        5.15302462161654
H            5.86115274956497        0.75327433816546       -0.23634842632905
H            3.63482677485221        1.18839192464269       -1.60405173906232
