5
 energy: -0.461248628751 gnorm: 0.000095091260 xtb: 6.5.0 (97a52f5)
Br           0.98067235788713        0.11630371001599       -0.07248385819547
C            2.89427363164270       -0.00902507745340       -0.04218436339230
Br           3.59292058865919       -0.40546658423159        1.69943038022485
Br           3.59291648892537       -1.15734804341018       -1.41030266633202
H            3.25732693288561        0.98907599507918       -0.28350949230506
