11
 energy: -2.171059963888 gnorm: 0.000374603685 xtb: 6.5.0 (97a52f5)
Br          -1.57790424815226       -0.04936586467232       -0.04051710831041
C            0.30782782883391        0.03868583029796       -0.02170936933228
C            0.95248683008423        1.24839494020534       -0.00505880503378
C            2.32842919881506        1.23985832061591        0.00749149302308
C            2.98376991479838        0.02997886399789        0.00300380796740
N            2.38335829906688       -1.14743316105643       -0.01258487966177
C            1.05798076127365       -1.11482348228536       -0.02480836896694
H            0.38808759864910        2.16670429508711       -0.00258773261976
H            2.88200264058410        2.16413799455216        0.02094784263828
H            4.06327137956177        0.01351018172630        0.01336336527351
H            0.54510979648518       -2.06494791846855       -0.03946024497736
