54
 energy: -9.856896675141 gnorm: 0.000915925777 xtb: 6.5.0 (97a52f5)
C            1.00011917774725       -0.25635360616438        0.08681864286414
C            2.52878668786494       -0.13187432125221       -0.05955089528442
C            3.19418449428167       -0.76729627336518        1.17396662582856
C            2.95328140218176       -0.89529902200482       -1.32876969858183
C            2.97321275009930        1.33468844133226       -0.16847647502584
C            4.30010472819017        1.62479604767720       -0.42098349776569
C            4.76714230954189        2.93056159783964       -0.52469891832036
C            3.85285620492440        3.98501283181478       -0.35294920393620
C            2.50153802798406        3.71291634911039       -0.08285102344951
C            1.55294005672365        4.90075323499872        0.10386099407344
C            2.05214126310637        5.75590798141397        1.28181976319308
C            1.55449032199222        5.74614861854946       -1.18183587682114
C            0.11109823845608        4.44847855891363        0.39731495041948
C            2.09041247104025        2.39722304386405        0.00254860658822
O            4.25455903051872        5.28577339226596       -0.44229958997877
B            5.62733070373056        5.70174792089684       -0.73445592089399
F            5.64575882741593        6.42884152150859       -1.91969635488187
F            6.11174425266611        6.46742855097832        0.32042211638864
N            6.56593187463175        4.50032653816897       -0.90923838474760
C            6.15254242869409        3.23491573746448       -0.80564583322210
N            7.07373002614527        2.22000025730071       -0.97959227855001
C            8.41032416496932        2.42163396821635       -1.26107272553009
O            9.18952002891988        1.49023715552139       -1.40867552259854
C            8.84031945854264        3.80562241063850       -1.37359895553400
C           10.16314953563450        4.12228372509457       -1.65849428572596
C           10.55730440328803        5.43218277443609       -1.76364292117414
C            9.63122272084676        6.45003757730144       -1.58438115537243
C            8.32400842944093        6.15058449791735       -1.30295804757682
C            7.89528886587656        4.82641681114010       -1.19107386202511
H            0.70099136356253       -1.30312917831113        0.12866122049872
H            0.48772663475382        0.19982792286626       -0.75946376836808
H            0.65134212334775        0.21999121912975        1.00218751699474
H            2.89489751483485       -1.80864819684062        1.28627535785451
H            2.91120014323017       -0.23445217095263        2.08099787223266
H            4.27992404454261       -0.73780917873056        1.09496971168343
H            2.61393125969070       -1.92980012402727       -1.29237394843551
H            4.03562904954220       -0.90848725690076       -1.44465236935673
H            2.52680042123029       -0.43152563383797       -2.21733191151966
H            4.98826905352522        0.81084085703529       -0.53500072627342
H            3.06245733443532        6.11839004807812        1.09321338476446
H            2.07310452810700        5.17226262464674        2.20108290494720
H            1.40827593296464        6.61982569316316        1.44105474166228
H            2.55866448697616        6.10668384572559       -1.40399708492167
H            0.89962008148068        6.61096268520016       -1.08434604027298
H            1.21595002313508        5.15615302159045       -2.03235502664289
H            0.06380303876267        3.85749216555009        1.31110667855740
H           -0.28766466357562        3.85259594017083       -0.42269622681350
H           -0.54344620617506        5.30947750101796        0.52760891679479
H            1.05894091048917        2.18822588263708        0.20885027814590
H            6.79687226260342        1.25019491545132       -0.90785610978800
H           10.86546580207218        3.31731031041662       -1.79420123886732
H           11.58434497113986        5.67076854650313       -1.98543503312992
H            9.94073931797289        7.47884369121193       -1.66707326934279
H            7.60118768589617        6.93565854762948       -1.16342610276249
