35
 energy: -7.582848308051 gnorm: 0.000641486305 xtb: 6.5.0 (97a52f5)
N           -2.77384410067736        0.08232512514190       -1.11888539223702
C           -1.64976889593548        0.04411823746828       -0.82605705510246
C           -0.29530457175527       -0.00097047350402       -0.46935882989372
C            0.31493784926294        1.09706399511132        0.13146357752976
C            1.64202602766300        1.05696639771304        0.48550475311891
C            2.39586294439752       -0.08885927655712        0.24670816468630
N            3.74646441844548       -0.17128750738750        0.60014157150493
N            4.45886539438879       -1.28330613211347        0.39310011387283
C            5.69226403498962       -1.39691917807742        0.72909433668288
C            6.47613704922424       -2.57826640684405        0.52847357617481
C            7.81740572877037       -2.58680201572772        0.95629535198249
C            8.60706659557534       -3.68137733269716        0.79706364038709
C            8.10420886667764       -4.85140899597914        0.19036210734329
C            8.91970070031087       -5.98908424973054        0.02113376380829
C            8.43060251253803       -7.11532745341419       -0.56923185397446
C            7.10903030462537       -7.15369919018807       -1.01574751836924
C            6.29362814333218       -6.06987095936679       -0.86582918874834
C            6.75836439176500       -4.88443762373970       -0.25829150691502
C            5.92974687415027       -3.72636763813672       -0.08199109412075
O            4.61872963804470       -3.70334192898558       -0.48944155107295
C            1.78870264129582       -1.18606484133100       -0.35389888567842
C            0.46255729679871       -1.14414057395215       -0.70772256943986
H           -0.27210227196483        1.98065606847315        0.31602664223636
H            2.11017862626503        1.90628520703744        0.95113775995091
H            4.20742153938942        0.62740257277385        1.03332859653817
H            6.16037350979885       -0.54908761058651        1.19646155838800
H            8.21628556697818       -1.70155130548619        1.42101365717398
H            9.62933332922515       -3.66739863034566        1.13308588053854
H            9.93891205159287       -5.95569199960105        0.36553735502833
H            9.06311933929656       -7.97874788528133       -0.69383448746586
H            6.73280405019932       -8.04896808670908       -1.48314474923739
H            5.28254168976399       -6.13205983112978       -1.22360648372966
H            4.35098567841799       -4.56148524134655       -0.87990146789979
H            2.38826835060215       -2.06329700222336       -0.52825812773602
H           -0.00696530345366       -1.99452823327953       -1.17193164532506
