14
 energy: -3.019044910949 gnorm: 0.000616378457 xtb: 6.5.0 (97a52f5)
N            3.56072674043219        0.02734455211636       -0.01557794970521
C            2.39912190037267        0.02195057521813       -0.01850265403496
C            0.99719635807859        0.00935167824440       -0.01431681327091
C            0.27772853692740        1.19937732933722       -0.00951965744590
C           -1.09501151347265        1.19128574250809       -0.00130620938288
C           -1.79860747884990       -0.01519221703931        0.00254617403135
O           -3.17703446164702       -0.06068244954904        0.01449260350582
C           -1.07194570435537       -1.20715128802726       -0.00446352586289
C            0.30025305323640       -1.19377635793815       -0.01240951773256
H            0.81741428164017        2.13128294284004       -0.01153856383289
H           -1.64272712345752        2.11663053425402        0.00344620437567
H           -3.54733334346507        0.84741947140159        0.02005366748200
H           -1.61650042924899       -2.13466924873924       -0.00244070640303
H            0.85542918380910       -2.11649126462683       -0.01661305172362
