41
 energy: -8.752159875120 gnorm: 0.000874991640 xtb: 6.5.0 (97a52f5)
N           -3.01688281760382        0.00136317029846       -0.63680747052648
C           -1.87330139718268       -0.02581374865648       -0.43523100122122
C           -0.49305991458791       -0.05690893889314       -0.19463982163693
C            0.26542210199307        1.10576603491402       -0.27160513576428
C            1.61792930281787        1.07409936874606       -0.04132146306569
C            2.26048699452666       -0.12295552501215        0.26873014510206
O            3.64504269040333       -0.11357181048118        0.49919448436825
C            4.36881806868978       -1.31249790533653        0.42011621293576
C            5.15732638587697       -1.70225883277416        1.49539514033598
C            5.85733382822006       -2.89152199421833        1.48265896373283
C            5.80848495633727       -3.73424432875283        0.39224538374434
C            5.04791436234039       -3.36604796434917       -0.74326068442976
C            5.01324124877115       -4.19799128592477       -1.88863385177446
C            4.29809133409538       -3.80339082456336       -2.99313563335822
C            3.61274541146679       -2.59423213954450       -3.00157154060070
C            3.63066138543448       -1.78058755246376       -1.90260008860745
C            4.33162632950486       -2.14833430525502       -0.74525797618361
C            5.74354712629944       -5.46835636891483       -1.89055981995455
O            5.70334429503672       -6.20759051899484       -2.85685771990798
N            6.47732592836807       -5.80187250702594       -0.74474115696508
C            7.24167163631200       -7.03902672068690       -0.72708986915652
C            6.40434929260643       -8.24358066107737       -1.11301998278265
O            7.10235253776242       -9.46431399698327       -1.03249516107820
C            6.55057717123377       -4.99040159999954        0.39390050367741
O            7.21650750575855       -5.32728805900628        1.35731658728860
C            1.49478718553884       -1.28470887796353        0.35768562356839
C            0.14245197660785       -1.25082886936267        0.12718357431966
H           -0.22616233945222        2.03258064127629       -0.51384754559837
H            2.20844950253343        1.97143857927396       -0.09656476076741
H            5.19531663086692       -1.05655856442988        2.35456736180710
H            6.45564552468255       -3.18760417396929        2.32805622843445
H            4.28872740331360       -4.44933353064621       -3.85492552526624
H            3.06776189333634       -2.29659522122187       -3.88204931375207
H            3.11353206634414       -0.83782646559369       -1.91638889870463
H            7.64631865112563       -7.17199798774290        0.28189640243306
H            8.09320242000434       -6.92395106960266       -1.40307102007063
H            6.01771558605943       -8.12551049596203       -2.13391917014654
H            5.53246400398404       -8.32816389137935       -0.45292325067120
H            7.89964159902931       -9.44607031064288       -1.60537465921897
H            1.97999522988673       -2.20838994837038        0.61715603435644
H           -0.44504309834115       -2.15046079870680        0.19631987510715
