53
 energy: -12.091354812149 gnorm: 0.000596961447 xtb: 6.5.0 (97a52f5)
N            1.18230700664986       -0.56304427770117        0.68768161152730
C            2.33338634218866       -0.44146894300382        0.58699663033714
C            3.72391982828450       -0.30229269230357        0.45975779506227
C            4.31331407329464        0.97584467857730        0.50125087327505
C            5.66757171503097        1.14728176889079        0.37386271414094
C            6.47226413856127        0.02172753701345        0.20156889825715
C            5.89758033703069       -1.25993935002955        0.15393925548953
C            4.51965809421278       -1.42034967605708        0.28558904170340
C            6.96914209444038       -2.20325470923242       -0.05891547028715
C            6.98967720261857       -3.59289901003750       -0.18376285865886
C            8.19665451207107       -4.21779314059508       -0.38454673114925
C            9.38342928599716       -3.48350094850109       -0.46367849238400
C            9.37864345434474       -2.11569703456014       -0.34461244423287
C            8.16210559394394       -1.46611050906245       -0.14218799209184
N            7.86319172444162       -0.09881317649201        0.02108489543527
C            8.80799120983708        0.98157244415426       -0.05785117167456
C            8.93691344717796        1.89699507477391        0.98041087679603
C            9.85627102434480        2.92071441615039        0.89626542933738
C           10.65182893822272        3.04743144282008       -0.22247668717163
C           10.53415022038273        2.14701520643560       -1.27537771030098
N           11.33814777627748        2.28309861997222       -2.45865479858683
C           10.85295713735693        2.32804307056735       -3.78076891395470
C            9.55065388862948        2.28340108751151       -4.27680815729616
C            9.35856521664853        2.36488024418695       -5.63367409744267
C           10.44144479741662        2.49200866160478       -6.50843007603935
C           11.73047842879719        2.54180001766115       -6.03602739956862
C           11.94186573333474        2.46135168418750       -4.65860325643376
C           13.13939626360133        2.49315627562521       -3.85353018030218
C           14.49165772891175        2.59820065504814       -4.18306409777841
C           15.41910335399800        2.58323337245114       -3.16982420110458
C           15.02407015677567        2.46331570733758       -1.83428561224050
C           13.69775233567493        2.36178763009906       -1.49438741597745
C           12.74273496363795        2.38263568912216       -2.50983764698588
C            9.61143102232148        1.11839788722132       -1.17789572829042
H            3.67170959064683        1.83010805253292        0.63378653034197
H            6.11484794855455        2.12470657201934        0.39724588642276
H            4.07944949463720       -2.39982307022837        0.24683102255953
H            6.07221090014125       -4.15075089513277       -0.12035135385396
H            8.23029789037133       -5.29046463959367       -0.48117920601545
H           10.31625810884577       -4.00009146046588       -0.61893558796753
H           10.28709838157149       -1.54293250170193       -0.39864348013829
H            8.31723028481512        1.78506205725078        1.85278468729087
H            9.95233587379683        3.62442661121611        1.70659384416268
H           11.36184098713941        3.85173722633996       -0.30255947699892
H            8.72263434835055        2.19406306049366       -3.59676248584651
H            8.35764032127364        2.33262106818816       -6.03149410123048
H           10.26087111508415        2.55446942697750       -7.56887769158772
H           12.56872430380908        2.64323581372119       -6.70233242669819
H           14.78761284302687        2.68525127775787       -5.21348271147323
H           16.46720058893974        2.66172506214663       -3.40726285062675
H           15.77357997191545        2.44850730528024       -1.06025165955728
H           13.38610743146083        2.26081485531265       -0.47033651827652
H            9.51671056917607        0.41530447403759       -1.98369930189842
