89
 energy: -20.551131015192 gnorm: 0.000765431480 xtb: 6.5.0 (97a52f5)
N           -3.67807699714841        1.36588063182048       -0.98113165368646
C           -2.65445872149795        1.46629279132374       -0.44057654649026
C           -1.42030298300082        1.56340122536625        0.21606229073280
C           -1.12878371908360        2.69370056197917        0.96448985445514
C            0.07461435910535        2.81378019285311        1.62427319614878
C            1.00508344660460        1.80063473438793        1.55310005776458
C            0.75128657164889        0.65509275050806        0.81468820987260
C            1.69147417797645       -0.38481646644440        0.78799639448401
N            2.44197666395677       -1.27108927819905        0.75154761240032
C           -0.47023087072243        0.52841722998308        0.12406136302106
C           -0.74728012684613       -0.69257687901688       -0.66993222137356
C           -1.80692604286683       -1.53660396049545       -0.34273577452764
C           -1.99926642827674       -2.71559104135886       -1.01639832565665
C           -1.15666615966974       -3.10300498399561       -2.05965034253539
N           -1.23775442044124       -4.41402753046857       -2.63608846145929
C           -1.93621617267283       -5.46267050485692       -1.94617698207092
C           -3.30323911055682       -5.38717560293491       -1.68892808424930
C           -3.92878928914039       -6.35027951934631       -0.93263394115030
C           -3.20328147202548       -7.41028535946131       -0.42976466993476
C           -1.85886179900162       -7.52103427319936       -0.71725974151167
C           -1.21513653506434       -6.57630396924384       -1.49561290264890
C            0.25419924990035       -6.76494603980094       -1.89796364616116
C            0.57317593769900       -5.96849760390326       -3.17424116481973
C            1.63679770207717       -6.32260466737722       -3.98400320010026
C            1.89959394271771       -5.63812679861496       -5.15288216410112
C            1.09439162604789       -4.58377146471985       -5.53051556389420
C            0.04581037564682       -4.20032003555125       -4.72856077426122
C           -0.21231488818117       -4.86500559437825       -3.53268400448321
C            1.14920146728114       -6.26230838072054       -0.76279772440261
C            1.26655291166849       -4.90400407818863       -0.53324893354087
C            2.07110523459672       -4.40442132038367        0.46654110200575
C            2.76290914562683       -5.27453838609724        1.27921932540782
C            2.64480615607572       -6.63059889960629        1.08538804463417
C            1.84458523581439       -7.14563509102229        0.06807668582669
N            1.74942742926103       -8.55339838551832       -0.11921382202859
C            2.21935158170013       -9.44353658029157        0.91670927037269
C            3.45094280619933      -10.08729926146273        0.80822981512905
C            3.88013097559158      -10.94164567173354        1.79143863543646
C            3.10011919450334      -11.18549855123121        2.92394828821897
C            3.55638085894768      -12.11942999638512        3.97983263863318
C            2.70023027058281      -13.13150799257339        4.46069259263690
C            1.40568401082475      -13.29774988301513        3.94919100173272
N            0.33207337145728      -13.41440264697590        3.52008156246219
C            3.14397412178836      -13.99476435048498        5.45091399061969
C            4.41215670717285      -13.87843727247325        5.97412743796116
C            5.25838727348812      -12.89504967244962        5.51315735727442
C            4.85278085750203      -12.01223552563091        4.52368049927697
C            5.74264373068122      -11.01693793972863        4.09719862212290
N            6.47045886726377      -10.19205994684783        3.72303309528583
C            1.87317025642372      -10.52771635056795        3.03131750413762
C            1.44085205172030       -9.67441870177147        2.04925909492490
C            1.16385664843594       -9.08401607536340       -1.30311896797289
C            1.25329845950131      -10.44615294824389       -1.57843823610711
C            0.67645794390616      -10.98271965297917       -2.70467665596437
C           -0.01200451341937      -10.16678289845385       -3.57608191345501
C           -0.11879940071268       -8.81768502993165       -3.31102587652052
C            0.46611609195488       -8.25641073060263       -2.18867876855378
C           -0.11625641111707       -2.23733119394186       -2.40211095513509
C            0.08798374186163       -1.06436993031747       -1.72218755433461
H           -1.86194345435353        3.47994017434584        1.02356061435825
H            0.28529078263496        3.69800598718490        2.20296076423011
H            1.94127014480118        1.88282919928058        2.07850633867253
H           -2.45936362277853       -1.25934687219022        0.46715290373996
H           -2.78836385258922       -3.37083909972713       -0.70133227906333
H           -3.86728699931028       -4.57066982345770       -2.10510908801960
H           -4.98434609561178       -6.27534644818392       -0.72923096233764
H           -3.68891597318018       -8.15962379808037        0.17321890394511
H           -1.29401102386176       -8.35647923942975       -0.34279688589250
H            2.25946576935253       -7.15065479202624       -3.69288669034508
H            2.72875597419412       -5.93319484726914       -5.77436557702426
H            1.29068720527373       -4.05714688427898       -6.44981469449568
H           -0.58970856009811       -3.38009413069337       -5.01366497770193
H            0.69842117931602       -4.23267271989584       -1.14746138172955
H            2.16778843566196       -3.33900146170976        0.60414794533248
H            3.39563125810796       -4.89244989299002        2.06356359151429
H            3.18585003414160       -7.31349359051989        1.71607589974509
H            4.06033042317115       -9.89713201795071       -0.05784054466057
H            4.83273067591988      -11.43421242150251        1.69994796906535
H            2.47830293642078      -14.76346903304998        5.80530532873661
H            4.74155240694694      -14.55634818540762        6.74433299635740
H            6.25014605975773      -12.79704130996883        5.92105568397183
H            1.26114133584421      -10.70612913353859        3.89855244926275
H            0.49047227021734       -9.17718637649338        2.13329276222250
H            1.77961482250335      -11.08288738323549       -0.89048013339239
H            0.75723737244071      -12.03888402868280       -2.90272306636114
H           -0.47246984946212      -10.58252517430028       -4.45703141751503
H           -0.67453773976346       -8.18160699280523       -3.97827559071229
H            0.57150697370499       -2.52070951185809       -3.17693295579350
H            0.91666571676697       -0.42623539146899       -1.97656387599712
