56
 energy: -12.276620264089 gnorm: 0.000679473686 xtb: 6.5.0 (97a52f5)
N           -2.93741338411437        0.00158207850817        1.06812088093936
C           -1.81321399577666        0.01060743822803        0.77501517570788
C           -0.45482784532652        0.01512359680770        0.41948929658370
C            0.18841667988503        1.19583096464598        0.06204460989861
C            1.52375156687148        1.19042494056123       -0.28553817737334
C            2.23412397324570        0.01144206270692       -0.28390034419335
C            1.61376396779370       -1.18451835209250        0.06647548561017
N            2.36347282046825       -2.41914580947677        0.08680815939339
C            2.20038373933674       -3.37635596341188       -0.95332938281265
C            1.17832182671756       -3.23272978392369       -1.88827899993402
C            1.00359657613619       -4.15167824652616       -2.89554349286961
C            1.85453650131796       -5.23171727101702       -2.99109243946373
C            2.87976532929017       -5.37929099920035       -2.07988676419406
C            3.07096696069656       -4.46756025217769       -1.05501751248381
C            4.27935119699883       -4.60237569393814       -0.11689765516122
C            4.44233314015570       -6.09543818909247        0.21230325807024
C            3.60303961542013       -6.68720382225844        1.14446078260934
C            3.68416435303398       -8.03631725976400        1.41856944625313
C            4.59843644424465       -8.82183022496701        0.74988526872728
C            5.42274871448557       -8.25560757439204       -0.19908110990320
C            5.33871407229847       -6.90574006828179       -0.46969686595180
C            5.52702167322916       -4.01960393970101       -0.80251741156376
C            6.79784972343481       -4.27825706303465       -0.31003490995465
C            7.91515380772618       -3.71821919652093       -0.89399427444779
C            7.77937477782280       -2.87341401392366       -1.97455104525142
C            6.52322554732787       -2.58537710135278       -2.46322879578100
C            5.40968098695171       -3.14896755665849       -1.87682716483853
C            4.06942003129329       -3.80353815887031        1.17651551101510
C            4.81495084224678       -4.08915049526892        2.30850167191100
C            4.68833996355799       -3.33921567582397        3.45983442153363
C            3.81064880740925       -2.27682882374848        3.49346149027504
C            3.06328842608063       -1.97497809298441        2.38002297872831
C            3.17610890606315       -2.72728801359555        1.21358362559835
C            0.26918396982851       -1.16593278832643        0.42040012102416
H           -0.37262057453235        2.11469507519460        0.06167896457347
H            2.01179603082100        2.11153847587364       -0.55892470774194
H            3.27610097296420       -0.00519741665717       -0.55190818447054
H            0.51718599064432       -2.38831223168086       -1.81245814277643
H            0.20385867543753       -4.02821265826508       -3.60740939807195
H            1.72436807918549       -5.95458668714142       -3.77966361114222
H            3.55384595670400       -6.21259645495654       -2.16924084832006
H            2.87543785459560       -6.07676994860705        1.65137200933903
H            3.02745712977536       -8.47677373733092        2.15098839239198
H            4.66252636720205       -9.87668558046317        0.96140268059444
H            6.13010833131231       -8.86851948141182       -0.73355477334451
H            5.96639703472441       -6.47503725583180       -1.23023641588827
H            6.91126797848132       -4.93102800868827        0.53764870787945
H            8.89445023691955       -3.93973229154351       -0.50219179269414
H            8.65144383442288       -2.43406196626170       -2.43070515551602
H            6.40990545376675       -1.91504786094685       -3.29955012417154
H            4.43071940256762       -2.89978884520400       -2.24634391011136
H            5.50044924749359       -4.91813446258057        2.28754748135856
H            5.27564304392836       -3.58245302773154        4.33001499370551
H            3.70808033529353       -1.68743103683790        4.38990401216543
H            2.36944787086499       -1.15352629882764        2.40317881732983
H           -0.21284896871792       -2.08425895122103        0.70256516722221
