13
 energy: -2.872731089544 gnorm: 0.000623743912 xtb: 6.5.0 (97a52f5)
N           -3.04916404145645        0.01863096574137       -0.05905035841667
C           -1.88780507702123        0.00971733506563       -0.04507589069409
C           -0.48376887407430        0.00345928435186       -0.02053196817081
C            0.22884751296177        1.19551508748793       -0.00642785931534
C            1.60625853921889        1.18787287224524        0.02007734126172
C            2.29042612785288       -0.00972589164299        0.03262320094987
C            1.59492251049764       -1.20073726883516        0.01824857146880
C            0.21754259865208       -1.19524754071385       -0.00821261878313
H           -0.31278498815218        2.12604638866555       -0.01596124093327
H            2.14919126669226        2.11858482186979        0.03158587333977
H            3.36773795384235       -0.01487815535439        0.05403700522857
H            2.12894956548375       -2.13659627045564        0.02796688379445
H           -0.33291309449747       -2.12055162842534       -0.01914893972986
