56
 energy: -12.273928368571 gnorm: 0.000669640601 xtb: 6.5.0 (97a52f5)
N           -2.81262442289323       -0.47191115461886        1.40773861590213
C           -1.72240547376165       -0.31744899310157        1.03577975965381
C           -0.40752830079530       -0.14664323606334        0.58495974152052
C            0.24430719043073        1.06835294341525        0.73712736490432
C            1.53930696796117        1.23448823500199        0.29490322323887
C            2.20601122228254        0.18470342694376       -0.30791279626124
C            1.57856238311258       -1.02833019484761       -0.46877265598247
C            0.27080078373786       -1.21507779405615       -0.02999158089167
N           -0.37829515805400       -2.49425609319662       -0.20298430705285
C           -1.23798780728489       -2.70617607789911       -1.31724979070667
C           -1.56124997644106       -1.64925324065188       -2.16391690831370
C           -2.39749209475080       -1.83274898627406       -3.23925434512087
C           -2.92342286239634       -3.08163517546388       -3.49147914535770
C           -2.60484685519194       -4.13943560913555       -2.66519553277741
C           -1.76939134485633       -3.97447057093761       -1.57317536142006
C           -1.36855878457819       -5.18300902954289       -0.71629149169840
C           -2.61900753393667       -6.06083526120383       -0.54949783196152
C           -3.62001355915608       -5.66305576115948        0.32409774122624
C           -4.78233669004651       -6.39393967733681        0.45279598516721
C           -4.96946167166060       -7.52991738496680       -0.30536475839665
C           -3.99576209591331       -7.92562412108391       -1.19753502971911
C           -2.83427645424251       -7.19228537484275       -1.32294452424344
C           -0.21732425702524       -5.93939405083026       -1.40133897654021
C            0.17089541983602       -7.19538640709752       -0.95875265271368
C            1.22494191066290       -7.86331138933027       -1.54671157482073
C            1.92113206060142       -7.27864513645804       -2.58260297106760
C            1.56412424784261       -6.02205149449149       -3.02186021212512
C            0.50908854101152       -5.35884250094361       -2.43149421916279
C           -0.86083935515508       -4.73755924415087        0.66165789820565
C           -0.84976395945564       -5.62211210058859        1.72760067723294
C           -0.33713490220060       -5.25978493594184        2.95626584424459
C            0.18316201069368       -3.99628819296704        3.13679041814518
C            0.18067306317260       -3.10304128255716        2.09220909843221
C           -0.34138294917725       -3.45203680217039        0.84950771222987
H           -0.27926280802128        1.88318432908049        1.20743776106373
H            2.03220126390125        2.18460437847945        0.41985722734083
H            3.21859043715118        0.31674846785061       -0.65229569821421
H            2.08752465932164       -1.85300578007414       -0.93642172872977
H           -1.15627376736914       -0.67493268804851       -1.95653498336804
H           -2.64420284187996       -1.00251722615040       -3.88061618935571
H           -3.57871533223235       -3.23232411737517       -4.33361578809553
H           -3.00536254050129       -5.11594540745579       -2.87262543273545
H           -3.48169148414295       -4.76319009989959        0.89894859388745
H           -5.54636679100844       -6.07284132288299        1.14170833622370
H           -5.87753990769360       -8.10199815811172       -0.20683170426019
H           -4.14426015178285       -8.80598049894492       -1.80125752614871
H           -2.09062811545981       -7.49015212618348       -2.04107002838311
H           -0.36557529414893       -7.65600976887772       -0.14810959515554
H            1.50528989100248       -8.84253794946607       -1.19449195836927
H            2.74441769759695       -7.79994073276873       -3.04308582177541
H            2.11236633481777       -5.55518603758279       -3.82372681593851
H            0.24937246306740       -4.37013724961084       -2.76532371148002
H           -1.25997965703993       -6.60776406023258        1.59415973476106
H           -0.34290793779988       -5.96321004487943        3.77266990476836
H            0.58377929725561       -3.70747801586265        4.09470802937306
H            0.56989529260028       -2.11034322245591        2.23185998082979
