12
 energy: -2.716693208977 gnorm: 0.000781480671 xtb: 6.5.0 (97a52f5)
N            3.00574028325041        0.12622396966978        0.01552280003792
C            1.84566478187560        0.05923473590122        0.01155949727390
C            0.44058729797049        0.00698465908712        0.00542662586875
C           -0.26015926547011        1.20281393321273        0.00504122485404
C           -1.62985955087646        1.18713099888781       -0.00530932698872
C           -2.25506355067734       -0.03463579453109       -0.01504040858393
C           -1.48451232180397       -1.17171084302069       -0.01280692183815
N           -0.16402625822673       -1.18340073731161       -0.00229143249353
H            0.28281967710951        2.13303103856719        0.01186752205720
H           -2.19729548573368        2.10329692508523       -0.00737269906580
H           -3.33064040300977       -0.10052752379076       -0.02491747358702
H           -1.96624520440783       -2.13807136175701       -0.01946940753465
