51
 energy: -11.793905158217 gnorm: 0.000750506712 xtb: 6.5.0 (97a52f5)
N            4.53285749709213        0.82812984081825        3.77429528368677
C            4.82404095780014        0.51091009449664        2.69362853572906
C            5.19354027082451        0.11837315429357        1.39055616708961
N            6.12972211874097        0.85074276301680        0.79409227270213
C            6.49731390399995        0.46337089346741       -0.42141130069989
N            7.56853826133024        1.16001896439861       -1.06996530564612
C            8.57411558022587        1.83446606772642       -0.35440463873782
C            8.72403470198639        2.04991000385981        1.01366743081243
C            9.82584190161100        2.73328304329002        1.46177787171792
C           10.78729215392815        3.20902311568445        0.56541463239997
C           10.65438308554157        3.00795056837647       -0.78724913809800
C            9.53721330127530        2.31387188093876       -1.25521689763989
C            9.10059190972859        1.94382141428476       -2.57801279703278
C            9.65658172941400        2.16762900063732       -3.83833948332132
C            8.98425530995631        1.71230044740035       -4.94508832010171
C            7.76223701934448        1.04811626004973       -4.81736414613633
C            7.20527703793074        0.81928018628646       -3.58411819740315
C            7.88248923062674        1.25266255348073       -2.44372313320680
C            5.92593064912874       -0.64035209745264       -1.00693920612956
C            4.95842849466182       -1.33162956990500       -0.31807305157823
N            4.39875905621594       -2.52646201470322       -0.87660606704757
C            4.06090734678490       -3.65085708656385       -0.10447265222558
C            4.10008000560314       -3.84513348137174        1.27391000309619
C            3.73362774691559       -5.06639668286975        1.78013988509068
C            3.32624073006331       -6.10095750264454        0.93244157986797
C            3.27794930253348       -5.92412282382369       -0.42946241925414
C            3.64870561533383       -4.68631498374744       -0.95772719491150
C            3.70427745346314       -4.17178579790812       -2.30436245803030
C            3.38431135648234       -4.74042223150816       -3.53807836999386
C            3.50428280434551       -3.97119355920952       -4.66913699129814
C            3.92598899499924       -2.64133935908730       -4.59201426866866
C            4.24570512007489       -2.06879534944953       -3.38635598035850
C            4.15164413907071       -2.84044029762988       -2.22874616966102
N            4.58927947562228       -0.96012764418538        0.90087664242777
H            7.96758220830413        1.68995241650732        1.68626583627350
H            9.95004822501783        2.90894572453238        2.51758339897242
H           11.64316188753503        3.74416144260466        0.94208488301474
H           11.38883688043328        3.37305033378919       -1.48302185491343
H           10.59172551952996        2.69161363861843       -3.92643972659237
H            9.39888654936990        1.87697097128384       -5.92579897999553
H            7.24568291445652        0.71702789661895       -5.70329307727741
H            6.24518184611351        0.34832842857522       -3.49472261348396
H            6.28924016694767       -1.01337368054277       -1.94335046573383
H            4.39815749577512       -3.03099191673635        1.90896323274642
H            3.75594229390211       -5.22931033463655        2.84503330012707
H            3.04299604034660       -7.05048790733374        1.35551517503240
H            2.96153531987426       -6.71447212628988       -1.08676442244237
H            3.04604284084526       -5.76025904716294       -3.58678913340321
H            3.25931587462799       -4.39475591600146       -5.62908368893752
H            3.99239185767134       -2.05422490073638       -5.49315879653317
H            4.52421781659152       -1.03387479354450       -3.31851518430299
