47
 energy: -10.219778969645 gnorm: 0.000996546800 xtb: 6.5.0 (97a52f5)
N            1.61928638516224        0.23410962264919        3.05984645264478
C            2.40096796438371        0.20611096971101        1.94646619771802
C            2.56812592685610        1.36773068024616        1.18578843784277
C            3.35265402645736        1.38233651076294        0.04822881499134
C            3.99414220504740        0.24320874558326       -0.36926893345696
C            3.86070609140834       -0.94668066059104        0.35102772015215
C            3.06660142222604       -0.99428988463169        1.52113044669637
C            2.96313124409709       -2.21759834387195        2.21316530980970
C            3.60802245316489       -3.33813328159231        1.77119748055534
C            4.38065580113558       -3.25749201481060        0.61168823229998
N            4.49046016693277       -2.09372349800506       -0.06165854169475
B            5.38957858683910       -2.30760301602733       -1.28757493116870
F            4.68083930304190       -2.06486535871381       -2.45589600157091
F            6.52578604426898       -1.51541603474011       -1.19854038709597
N            5.76674777962267       -3.79251285117811       -1.19316664249297
C            5.15218304036140       -4.27964841377919       -0.06530993027828
C            5.48326747265218       -5.63411646462815        0.03998855858643
C            6.31382555564712       -5.93898269693754       -1.05775223695862
C            6.95771875738204       -7.15915809202239       -1.47791797439104
C            6.81947710923631       -8.34357383265367       -0.74821895547003
C            7.43587333682339       -9.49485451446952       -1.16038901778175
C            8.20693659366464       -9.49294205608611       -2.31194259897583
C            8.35807037138258       -8.34258157546019       -3.04571279850675
C            7.74469619249746       -7.14483738915031       -2.66012875479076
C            7.90011583275628       -5.90850597974886       -3.44129018997085
C            8.65934089897498       -5.84025437873806       -4.61539683190058
C            8.78169632830225       -4.66625615143467       -5.31923902471952
C            8.15229940935358       -3.50947115334487       -4.88218873259929
C            7.40066411318748       -3.53523913862672       -3.73893402600991
C            7.26587949594477       -4.71935302740156       -3.01316960841269
C            6.48082907193221       -4.76046023048323       -1.82337480871780
H            1.14374206326832        1.06560612991553        3.38178625327549
H            1.44881638343266       -0.55066086100764        3.67200138016230
H            2.06774330334705        2.26493884833710        1.50437388665441
H            3.46182412812093        2.29424109364021       -0.51535302021641
H            4.60749550140294        0.23628454440965       -1.25354248882935
H            2.36441959873368       -2.26886679661019        3.10376381735194
H            3.53143745953098       -4.27350714251445        2.29681880575894
H            5.16272424984005       -6.30669492587818        0.81508348100268
H            6.21990238737993       -8.34101402358163        0.14506248719112
H            7.32242287190737      -10.40231157130162       -0.59032928975420
H            8.69041622415176      -10.40145842294682       -2.63175540922087
H            8.96171492065773       -8.36997188517904       -3.93409097049223
H            9.15811756792278       -6.71913988371716       -4.98025425448955
H            9.37156352503333       -4.64210964343966       -6.22080729155473
H            8.25443632670209       -2.59400438192039       -5.44127374668268
H            6.89995450782208       -2.65299756804510       -3.37693036448567
