63
 energy: -9.015798394816 gnorm: 0.002214196157 xtb: 6.5.0 (97a52f5)
C            1.00724945186331        0.38254502741559        0.52691035071573
C            2.50905874710303        0.25316903429126        0.56427037696859
C            3.04537168086249        0.11169377470193       -0.87330837448562
C            3.10067536683261        1.49481786940912        1.18577441956573
C            2.89150646272090       -0.99694585659590        1.36862938785658
C            2.54517060088793       -2.22250184835357        0.91858641871308
C            2.85663739238162       -3.36134501559163        1.58648872931075
C            3.56701389486349       -3.27090905630876        2.80219624836761
C            3.92857346152496       -1.99676927717056        3.27355126439672
C            4.69513707767336       -1.86191952754464        4.59096054899785
C            3.88758285211743       -2.48821926123520        5.69781084654885
C            6.02248421561210       -2.56596608244129        4.46647674063782
C            4.94008666804013       -0.37553887314976        4.92226177198332
C            3.57582159498180       -0.91837043532437        2.54084572849067
O            3.91231136016278       -4.40172967589335        3.49419138217557
B            3.12899807968370       -5.62564182632082        3.24439121865156
F            3.88623972869513       -6.73840081865433        3.57222120786146
F            1.97629751206581       -5.58337119205024        4.01158100549078
N            2.74276985145289       -5.69695357570693        1.82408923562936
C            2.52121513735351       -4.67241753511272        1.05948548383950
N            2.05757626687144       -4.74977731251120       -0.20741641483684
C            1.61186140104835       -5.91209132051965       -0.66014434652989
C            1.25648907894931       -5.95572747986524       -2.08873765068500
C            1.72397095891704       -4.99102668741486       -2.93340906871604
C            1.41661471877305       -4.98774800195736       -4.21513236543311
C            0.63206638842305       -5.91822698488751       -4.72947038386468
C            0.13562048697001       -6.87539931320516       -3.96688600213116
C            0.42338817049412       -6.92723615703176       -2.65281263476846
C            1.45150573990587       -7.02613392538340        0.15736306010928
C            1.14665380647830       -8.28452606024899       -0.14537122901791
C            0.99279182385805       -9.26914681532936        0.70519308653873
C            1.08151532423901       -9.12747299341238        2.06193577133358
C            4.35163177904567       -5.65051336098255        7.29729168568968
C            3.16699486722087       -5.62397093983691        6.79838931278274
H            1.00775514084564        2.38497442977831       -2.35038849612229
H            0.58897337794342        0.51211296763988        1.50353703158410
H            0.54168973239508       -0.45632407165281        0.05198834552416
H            1.27147772310659        1.91061258155506       -4.88338532616139
H            2.62161463705107       -0.76489093835339       -1.36193679730576
H            4.12936581833761        0.00523314472262       -0.87298933448920
H            2.78879277089358        0.98795466125815       -1.46696521886298
H            4.17047281926036        1.46436017190066        1.20756971856053
H            2.73042676504395        1.66920068262107        2.17484146349335
H            0.47729461532160       -5.08422332122487        2.61266034541882
H            5.35850375316443       -5.58112019581305        4.59379196864655
H            2.90022085127740       -2.08022584110326        5.76373137749624
H            4.37352114153241       -2.42546268031691        6.64953675302722
H            5.09163766083152       -5.67561813372569        1.88663207186268
H            6.59814415375099       -2.51752949580918        5.36760899340963
H            6.60201767646070       -2.19696180093942        3.64568503269352
H            1.30566568598470        0.17784297565948        4.14758621303296
H            5.52397183272159        0.10487571290044        4.13822550074815
H            5.48346420921091       -0.26932639686029        5.86034438694946
H            3.99709481390368        0.16112449240092        5.01651656640739
H            3.57293743381421       -7.84003191729141        1.78952563913889
H            1.31608207496794       -3.71212995239485      -10.46254230473796
H           -3.42535015668811      -10.56234663876016       -7.80667727348903
H           -3.78135923286025      -12.17236133207152       -1.31256264341914
H            1.57881045218886       -7.31414778491215        3.13684719601167
H           -0.00855949105172       -7.70197527080130       -2.04624099913864
H            1.89604074745675      -14.82465511390405        4.12708793442895
H            4.53683599355658       -5.63141721479398        8.33109072244604
H            2.98257505355618       -5.64663221745811        5.76386431609979
