3
 energy: -0.327655935469 gnorm: 0.000515553483 xtb: 6.5.0 (97a52f5)
O            1.05857541547343        0.07220964989665       -0.02032729371796
H            2.02866723634636        0.06017010240595       -0.04548253602452
H            0.76150734818021       -0.32688975230260       -0.85359017025753
