8
 energy: -1.147265219990 gnorm: 0.000775527651 xtb: 6.5.0 (97a52f5)
O            1.06861806952765       -0.08823122103695       -0.00871889697447
C            2.27133410881127       -0.11379385389566        0.04452322510398
O            2.99192385631462       -0.60428590527503        1.06610196271883
C            3.05488824819462        0.45056941545085       -1.13091019650670
F            2.74683651368630       -0.23688751713503       -2.23964826729221
F            2.74683439850986        1.74567344581801       -1.28775871792333
F            4.35706334733595        0.32000375471614       -0.85896985922147
H            3.95293145761973       -0.53255811864233        0.91671075009537
