33
 energy: -7.380439230034 gnorm: 0.000928213997 xtb: 6.5.0 (97a52f5)
O            1.24174023365389       -0.08514488757053       -1.55983302106003
C            2.20619553237805       -0.06293593559137       -0.81599977434442
O            2.30599323394430        0.73885059366111        0.28106272127174
C            3.33331526341237       -0.96201020696274       -1.13762772106741
C            4.46342650022015       -1.24386558112903       -0.39324427902574
C            5.23410126505988       -2.16770397221296       -1.12356125909677
C            4.53795921653189       -2.43791064559551       -2.32409589175534
C            5.03792709124981       -3.32876968464578       -3.27250312842764
C            6.24841376333997       -3.96409939427633       -3.03874927244432
C            6.80099294564912       -4.88504018014854       -3.98473216328687
C            7.97990118487847       -5.50192740908631       -3.76125939568509
C            8.73118390988723       -5.26212334300522       -2.56602596596883
C            9.94967120316734       -5.88793479626180       -2.32037936833107
C           10.65334423721985       -5.63683726718822       -1.15729716061693
C           10.16487429150239       -4.76267593057736       -0.21518997701246
C            8.94391523881958       -4.10677975497182       -0.41230963213172
C            8.40942078226035       -3.19625347659054        0.54184189173176
C            7.22544373464100       -2.57264835633406        0.32630342121706
C            6.48065457320419       -2.80596896739506       -0.85622258975308
C            6.97498281939100       -3.70235825936728       -1.82747438475892
C            8.21810326019632       -4.35810475434131       -1.60151426148111
N            3.37989052671516       -1.68406396571398       -2.30503033781769
H            3.16900285109605        0.62313436840744        0.73320923529874
H            4.71151617117309       -0.84634272075313        0.57465063902784
H            4.48523907276278       -3.51532023296330       -4.17396978067270
H            6.25300580605756       -5.08002925116711       -4.89008787127678
H            8.37595111194196       -6.19047543104411       -4.48723103358175
H           10.34195428647410       -6.57416866413130       -3.05053131035384
H           11.59549242776893       -6.13170569282774       -0.98816275072881
H           10.72014760707129       -4.57330980616250        0.68686000699784
H            8.96421229872631       -3.00838219868293        1.44448843605559
H            6.83500393961438       -1.88655896254111        1.05700645808181
H            2.64583361999121       -1.66771523282951       -3.01391047900286
