92
 energy: -19.847855295820 gnorm: 0.000717938973 xtb: 6.5.0 (97a52f5)
O            1.77325701597261        0.79374550856378       -1.26849869044220
C            2.55698272529165        0.29183694008760       -0.48141868076333
O            2.83585487540330        0.80201442812108        0.75356997581200
C            3.27508279945835       -0.94459906771776       -0.89218837697615
C            3.54788571261506       -1.96445862680322        0.01031049140805
C            4.20114106730210       -3.10310191300395       -0.39672897285058
C            4.60371151652696       -3.27244250799851       -1.72565641264521
C            5.27965385571978       -4.49440458473139       -2.17850479377448
C            5.26333183245103       -5.65544184250641       -1.43191855160411
C            5.89856382290277       -6.83278501373211       -1.83886524428494
C            6.59409742673826       -6.94352506266809       -3.02752077370472
C            7.25798887706162       -8.19007524670104       -3.42208601449734
C            7.00618923642746       -9.40140958855845       -2.76621351839717
C            7.65897365493645      -10.55373154981286       -3.12480328096012
C            8.59917830535530      -10.55697480492150       -4.15394863742437
N            9.28676341073291      -11.75854290465693       -4.51189913019925
C            8.61269117566837      -13.02287305948414       -4.39310730733759
C            9.26860489203914      -14.13113789165296       -3.86406016620465
C            8.62168470673201      -15.34048824491821       -3.74981521638925
C            7.30935886547254      -15.46502445938392       -4.16140939226252
C            6.64531993069682      -14.37439003713916       -4.68746726481788
C            7.28951680965577      -13.16355884418413       -4.80243079412505
C           10.64044086080476      -11.72097544305165       -4.96746300923330
C           11.11365611115643      -12.67118661604546       -5.87230610745994
C           12.41336764677406      -12.64345842788286       -6.30623880404806
C           13.30243367826220      -11.65771798992932       -5.86232077659096
C           14.70441743876963      -11.62164612510483       -6.31318966688830
C           15.06320710592843      -11.96134931763925       -7.61671712005125
C           16.46889981737093      -12.24651627738697       -7.97245462575026
C           17.00243629256701      -11.79145927318132       -9.18033095407011
C           18.30875712210906      -12.05910821455335       -9.52056297820484
C           19.11113372820926      -12.79157104715026       -8.66857770027882
C           18.60057377984033      -13.26077088637059       -7.47483848198275
C           17.29493179283724      -12.99594322006599       -7.13091772478758
C           14.05797126594229      -12.03545510861363       -8.69781972220033
C           14.10305751174741      -13.06477028891005       -9.64080285455369
C           13.17127305129420      -13.13794837766214      -10.65087292983252
C           12.17805522300119      -12.18381243168762      -10.74823964534153
C           12.12244215101165      -11.15101937754631       -9.83371806259637
C           13.05264131168616      -11.07309264169694       -8.82279022119973
C           15.72824215315977      -11.20694763460295       -5.32832634289635
C           16.73993863650092      -10.30715530388412       -5.67078399724557
C           17.68452481403311       -9.92222897038571       -4.74709267463173
C           17.63797394600518      -10.42010002840346       -3.46031704701728
C           16.64063476475082      -11.30363377272941       -3.09874287113459
C           15.69433290437850      -11.69194539382028       -4.01950078340849
C           12.82727065324540      -10.71802338972033       -4.94090080271286
C           11.52740574059953      -10.74770140409219       -4.50657371448680
C            8.84189691317525       -9.36048547670510       -4.82593211824060
C            8.18372066322393       -8.21256319602263       -4.46922155634640
C            6.64916286287672       -5.76536220100463       -3.85714969581531
N            7.25356167523907       -5.63563650246267       -5.02097811102485
S            7.01965375113599       -4.10822609326245       -5.56454086555899
N            6.12640922654380       -3.56211858811868       -4.30467421083050
C            5.98511172421852       -4.54107705711368       -3.43447222913805
C            4.32389226415626       -2.23488369202922       -2.61730826667208
C            3.66620530052055       -1.09985914739993       -2.21374826738098
H            3.54501829013609        0.28823805752147        1.19856443312088
H            3.22125875991516       -1.86524499851307        1.03122497928378
H            4.41852994707812       -3.86755373591640        0.32746807783335
H            4.72225253766858       -5.66808891934942       -0.50306355066383
H            5.85554012362507       -7.68090481478728       -1.17995039784336
H            6.27600859280147       -9.44063268894772       -1.97849968573429
H            7.46115687186552      -11.47382245107621       -2.60344175141802
H           10.28800868516231      -14.02376498618668       -3.53705454071732
H            9.13949504643819      -16.19069025257243       -3.33713881013004
H            6.80382088940581      -16.41242352720681       -4.07134533876031
H            5.62140624024498      -14.47147536837245       -5.00917054714976
H            6.78189585752899      -12.31097901378197       -5.21845595765798
H           10.43592619963916      -13.42310457357536       -6.23621194376057
H           12.76465457663545      -13.38888137280478       -6.99786417336165
H           16.37650778005364      -11.21802469922225       -9.84198043816608
H           18.70656354518680      -11.69550929973759      -10.45373869269590
H           20.13439803635083      -12.99858310105637       -8.93583802563858
H           19.22544389574796      -13.83526837911204       -6.81093207065680
H           16.89495099208255      -13.36646924423349       -6.20318139711827
H           14.87575036794031      -13.80976887545896       -9.56108381900877
H           13.21671893845856      -13.94187384748940      -11.36707588456754
H           11.44818978985042      -12.24398155503430      -11.53883497298033
H           11.34913812306458      -10.40453338750024       -9.91141665548643
H           13.01416430445830      -10.26496331144952       -8.11308508759219
H           16.77202820162343       -9.91653599826858       -6.67307323130452
H           18.46143025574610       -9.23077955208636       -5.02929248594521
H           18.37863743207604      -10.11761510289054       -2.73834637006189
H           16.60308981153146      -11.69051961351710       -2.09364523882423
H           14.91737147966168      -12.38271401276041       -3.74080114132026
H           13.49926366137800       -9.95916672724769       -4.57939582575905
H           11.17934979643888      -10.02687303727078       -3.78796800509875
H            9.54134567973926       -9.35536415223443       -5.64347659500640
H            8.37627851492479       -7.30516963507492       -5.00839029680204
H            4.63724693657798       -2.33109894733801       -3.63962118226708
H            3.44022344067679       -0.31293158541112       -2.91369768471593
