26
 energy: -5.311491514532 gnorm: 0.000589245184 xtb: 6.5.0 (97a52f5)
O            0.94799908593160       -0.46816972461021        0.16377784654085
C            2.15929209915759       -0.35376881184965        0.16725059572123
O            2.84675432493816        0.28594112434142        1.18701276796854
C            4.20806947144372        0.61281090633986        1.02238291242063
C            5.10085851350938        0.34700049928316        2.05708591129942
C            6.43175043896832        0.66941833678624        1.93527708246190
C            6.89633199231186        1.26980263311108        0.78269016815086
C            6.02185816668567        1.55060417301280       -0.24721944800631
C            4.69115234494676        1.22894788586475       -0.12904745928479
C            2.93958032180597       -0.99519876560004       -0.93180563176252
C            3.54529937300554       -2.22326380876494       -0.71404717677992
C            4.22726258879413       -2.85949089722485       -1.72336855199573
C            4.30893346883582       -2.27961321965097       -2.97671765271565
C            3.71931261935735       -1.06454227843833       -3.21694808956250
C            3.03158659369457       -0.38977756453554       -2.20374332754281
O            2.48248407861843        0.85304117280054       -2.41251866160860
H            4.72153763017713       -0.11300175463955        2.95226633679289
H            7.11227145836639        0.45567762320912        2.74288213928611
H            7.93936734668038        1.52331299809013        0.68891644215669
H            6.38260078870661        2.02370665309116       -1.14559768934084
H            3.99873501964378        1.44431140350549       -0.92329458019298
H            3.45878020948958       -2.67701758333709        0.25852625157613
H            4.69080413113843       -3.81487985187293       -1.54095761839895
H            4.83893866279394       -2.78462561640833       -3.76740201949964
H            3.78964562041572       -0.61100427644929       -4.18947250910036
H            2.53606365058629        1.09468874394731       -3.36230803857508
