104
 energy: -22.943606015408 gnorm: 0.000400947030 xtb: 6.5.0 (97a52f5)
O           -0.90800323647874       -0.91130718622467        0.41350898190627
C            0.27080007101998       -0.61674297847732        0.33541503048670
C            1.03712052204954       -0.96818810909461       -0.87909383644578
C            2.42969509603514       -1.01188488762012       -0.90155239208079
C            3.10007552662080       -1.39083583334163       -2.03929947854460
C            2.40134383097393       -1.75198732739697       -3.18723059854083
N            3.09849407818487       -2.18806517204420       -4.36395701143845
C            2.83863045629807       -3.37170604709337       -5.08486312436266
C            1.92004119115221       -4.39639336391226       -4.86069122937571
C            1.89396011732748       -5.46192003666407       -5.72286855336171
C            2.77066529523593       -5.55004240068933       -6.82583302050304
C            2.71542672321446       -6.71592734873935       -7.73533705295827
C            1.49410434233651       -7.26996827990185       -8.11644000530205
C            1.44503221211729       -8.35626511824170       -8.96243613800705
C            2.61271960314828       -8.91173085911100       -9.44495879963398
C            3.83137616744267       -8.37696095564099       -9.07913008962341
C            3.88399131307484       -7.29047162464639       -8.23358546612804
C            3.68951047163658       -4.53143200388272       -7.04180434199934
C            3.72495519403522       -3.44626922471978       -6.17210048421912
C            4.55917004104602       -2.26738332598807       -6.12529740565482
C            5.58238292859344       -1.81619035797934       -6.95234630161298
C            6.20721399572338       -0.60892768679163       -6.66927728321363
C            7.29194921743782       -0.10581768723561       -7.54098461651482
C            7.38120125967352        1.24706375078629       -7.86589901789163
C            8.38850050624842        1.71171029512185       -8.68301186150364
C            9.32663937627683        0.83675241642126       -9.19218843958641
C            9.25466969598101       -0.50615878605902       -8.88191749989801
C            8.24842957796182       -0.97417358106925       -8.06547124092936
C            5.78839824688186        0.13396063576846       -5.54411201351426
C            4.78131845567102       -0.30222794307981       -4.72210399294255
C            4.15801735202911       -1.51627863485682       -5.00761100541284
C            1.01084231328118       -1.71400575110327       -3.16375935990023
C            0.34265051464662       -1.32893930217881       -2.02733436719561
C            0.93476299007512        0.06711564313037        1.47129496141689
C            1.82965092550003        1.11861812010454        1.28536587191389
C            2.42143534377570        1.73031032122423        2.36380804235411
C            2.13454047146508        1.31413639849211        3.66053622773393
N            2.77146014401794        1.93170828570626        4.78901330224201
C            2.84827783591718        3.31411395151911        5.05594717915851
C            2.34581539396769        4.41137545134723        4.35771621401788
C            2.54725807126195        5.66843991476020        4.86693642079011
C            3.24477942169196        5.88025978724471        6.07597512642924
C            3.43945718554663        7.24997338278339        6.60112555049793
C            2.41839386182740        8.19669156974594        6.53033291227353
C            2.60086738218894        9.46973999663920        7.02453966564281
C            3.80495870109190        9.82382242469741        7.59875515081963
C            4.82750129724872        8.90021941747560        7.67812560854246
C            4.64822092386286        7.62621606515558        7.18531006176291
C            3.74059377196805        4.78506924718870        6.77080149508924
C            3.54002442445339        3.50540494055586        6.26394637548031
C            3.90995090780781        2.19889842447732        6.75809346515925
C            4.61363385146190        1.79206994491743        7.88704877089293
C            4.83813916652901        0.43841821644168        8.10087703138791
C            5.58848953738183       -0.01888902093127        9.29141490992131
C            5.19521386977918       -1.15787861009455        9.99275074275625
C            5.89697671526830       -1.58259015356250       11.09968778701857
C            7.00480293823346       -0.88017393919188       11.52889525849659
C            7.40928522075794        0.25001568762080       10.84771698547289
C            6.70948129888878        0.67773623543821        9.74074213746702
C            4.34882782775349       -0.49588453382292        7.16252543134563
C            3.65396881127558       -0.10537496200598        6.04716754267149
C            3.42350861322272        1.25398487068148        5.83951005156572
C            1.22268655301902        0.27980668394191        3.84621872935556
C            0.62823337974040       -0.32815406709657        2.76813606011751
H            2.97935640705900       -0.76959989212853       -0.00910711506031
H            4.17484954388057       -1.44023929238394       -2.04964832184450
H            1.25878504899573       -4.34440303783282       -4.01447620596290
H            1.19988824398959       -6.26633993530751       -5.55207016068475
H            0.58235218908252       -6.82929991602089       -7.75182853842034
H            0.49297686044632       -8.77218710136970       -9.24921287552615
H            2.57294807319318       -9.76204483223365      -10.10607450420913
H            4.74367478004475       -8.81201276692105       -9.45341101093926
H            4.83543248751557       -6.88409442453832       -7.93681240731778
H            4.36286932075058       -4.57082139749409       -7.87766076476855
H            5.86913041698901       -2.39155245675330       -7.81280206786967
H            6.64114470524917        1.92802569703253       -7.48247974001979
H            8.44231926770080        2.76002172143169       -8.92750399799454
H           10.11370976406462        1.20159352755256       -9.83178520619702
H            9.98783390931763       -1.18969105509638       -9.27801650349000
H            8.20085929752030       -2.01964586339701       -7.81404943727835
H            6.28624143392973        1.06294365032706       -5.32705104573973
H            4.46181474190292        0.27436194050053       -3.87267774359225
H            0.46807720463373       -1.98581744360306       -4.05210334204209
H           -0.73364303051828       -1.31234776144415       -1.99984671271341
H            2.04398275696511        1.45462762510766        0.28550212377364
H            3.12680808521188        2.52985642964220        2.21953865542641
H            1.80366743309208        4.25803393639782        3.44196592403726
H            2.17494930908106        6.52444468616150        4.33155820406941
H            1.47382981423219        7.91724450233852        6.09658968753012
H            1.80105324404404       10.18971586542068        6.96480917577874
H            3.94645537664153       10.82008584867267        7.98486034513614
H            5.76871808589426        9.17670717135060        8.12458184939829
H            5.45109246749423        6.91103822836765        7.23505406468262
H            4.25836382303955        4.91761353817626        7.70247767968756
H            4.96892874867855        2.52270176327862        8.58959635157153
H            4.32349427650735       -1.69875565166674        9.66719596250172
H            5.57940758750768       -2.46406042684444       11.63242718139329
H            7.55325445246184       -1.21394056398082       12.39460302371894
H            8.27575440403068        0.79755397093253       11.18094423127588
H            7.03439333920255        1.55090626229842        9.20177105098596
H            4.54578644996495       -1.54099105517038        7.32674587528950
H            3.29735809874922       -0.82263199052763        5.32995629598018
H            0.97936784170782       -0.02491799744516        4.84901248610602
H           -0.08916555364318       -1.11866648191178        2.90831447916773
