110
 energy: -24.193688882358 gnorm: 0.000622455199 xtb: 6.5.0 (97a52f5)
O            5.73320345973849       -1.58221465950086       -2.75207500669133
C            5.35207004070620       -1.01360631715867       -1.74640603176043
C            5.43084855396427       -1.69046303478273       -0.42406466340458
C            6.67393233428957       -2.01265165449579        0.10662555637535
C            6.77345104035993       -2.59703306096700        1.34354647995752
C            5.63059489945531       -2.88596904170686        2.09547177408826
C            5.74475256210039       -3.45874693602303        3.45385792526889
C            6.65391737581889       -2.92615722521032        4.36325560151734
C            7.04756749985795       -3.65340518664120        5.58797060829399
C            7.21396555533508       -2.97073620058835        6.79400526415282
C            7.59580131641882       -3.63811342508670        7.93573563555341
C            7.82643298609652       -4.99880688465583        7.89851265986059
C            7.67791017022859       -5.69080685296061        6.71321532893704
C            7.29666831810415       -5.02716140399058        5.56923711051201
C            7.26858840096569       -1.60432551434619        4.11958459132628
C            8.63373184571811       -1.39651673832107        4.33390017472809
C            9.20925617074456       -0.17811608318371        4.06762893371381
C            8.44497307492489        0.88219793142712        3.59707183268077
C            9.10058810628341        2.16920741527103        3.27725967272759
O           10.27406310871157        2.19718758098579        2.95813475245547
C            8.31235480276209        3.42254661405460        3.33806718323310
C            8.50487683961325        4.40286305930461        2.37258279557384
C            7.78961289462580        5.57454933947244        2.41230680162157
C            6.86749146838914        5.80847374416255        3.42902737121582
N            6.10119564526350        7.01931608576655        3.46064396451527
C            4.71245414092157        7.11429174394042        3.70896338792429
C            3.75775129806010        6.12854088178672        3.95700209251826
C            2.44152194999453        6.49831949684005        4.08698167576609
C            2.05399683332314        7.83465880080416        3.96831856524354
C            2.97877104170231        8.81780701308101        3.70935454365340
C            4.31857164622737        8.45611859350675        3.57387300099920
C            5.49928137533714        9.21959296197548        3.24397114769611
C            5.69393685023567       10.57537161632088        2.98348288837529
C            6.96230216885680       11.01335455422789        2.68620621977859
C            8.03815170188521       10.12366638022643        2.64752161385445
C            7.85939736644178        8.78474215551150        2.89605630011697
C            6.57742499806528        8.32048656724856        3.18673726713403
C            6.69012748147767        4.83373306050591        4.40653342022737
C            7.39945737686890        3.65920282558067        4.36219342451538
C            7.08193632903298        0.68757481471308        3.39396191419799
C            6.50466011475749       -0.52923257295036        3.65520820872822
C            4.86804013680863       -4.59632387649005        3.79940726287463
C            4.27497482350649       -4.70352308486541        5.05897547406350
C            3.44960734367813       -5.76213932372890        5.36325707559910
C            3.18981355954522       -6.73223033048254        4.41604416308850
C            3.75594573637595       -6.63821064538692        3.16038772954475
C            4.58313632716341       -5.58179389143224        2.85277040763622
C            4.38226220603439       -2.60151069464328        1.53497679409159
C            4.28501673357033       -2.01058796706997        0.29925367820157
C            4.84394245510358        0.37114675572654       -1.81937312116633
C            4.80889616947428        1.01281666076823       -3.05036382822735
C            4.37372932454944        2.31124951951851       -3.15476868203066
C            3.95278398857555        3.01034747743161       -2.02709441276147
N            3.49894590513438        4.36573249719559       -2.13659171278553
C            2.63131729122370        4.87633715879501       -3.12757999168053
C            1.98191633954030        4.24694681467373       -4.18894633826178
C            1.16493378575420        4.99340080451128       -5.00248399551676
C            0.97604633232577        6.35840035079699       -4.77579992381518
C            1.59699587540922        6.99232770288688       -3.72623148528085
C            2.42912737180051        6.24649611286738       -2.89198478825597
C            3.19054816704873        6.59792761958315       -1.71610470065909
C            3.35010624493288        7.80130726619065       -1.02933223825421
C            4.14872998549583        7.81835779298694        0.08800948918238
C            4.79486521182857        6.66091101871482        0.52278735421416
C            4.65548705012267        5.47192003626901       -0.14583250457290
C            3.83591675828004        5.43091989792054       -1.27258702860968
C            3.98714474867198        2.36744500423400       -0.79271172899675
C            4.43055254361383        1.07180961748117       -0.68896597391428
H            7.55640796299258       -1.78482476820345       -0.46638261326443
H            7.74027567631459       -2.83009447312737        1.75486289850895
H            7.03370406114620       -1.90990963322462        6.82048614073090
H            7.71583288772486       -3.09720002954866        8.86001174071045
H            8.12535005450123       -5.51970754625203        8.79335043944669
H            7.86231879264245       -6.75211552369616        6.68301983046410
H            7.18833282568651       -5.56389740676551        4.64278548279809
H            9.23544371284512       -2.21474566252101        4.68967429082727
H           10.26633383392860       -0.02611876563771        4.20429881673682
H            9.22661176875103        4.22340453751526        1.59412884834318
H            7.92195556036868        6.31669897144772        1.64507235697645
H            4.05454099475078        5.09724293246507        4.01782367939708
H            1.69436094853003        5.74541890134779        4.27687054611131
H            1.01406108260205        8.09645214903765        4.07334434150799
H            2.68738314062780        9.84744885862061        3.60067874439742
H            4.86008046161379       11.25384738743319        3.01982317921103
H            7.13098225654911       12.05838456344081        2.48486416370335
H            9.02415562677102       10.49487449457926        2.42122022056607
H            8.68784858398363        8.09976243925529        2.88397373726347
H            6.00515885256558        5.02540799901217        5.21351247793063
H            7.26732116856447        2.91499335770480        5.12850063136035
H            6.48699662790585        1.49763526660510        3.00916983391467
H            5.45047023074661       -0.67163296275549        3.49262864750309
H            4.47108952790214       -3.94274156107337        5.79431767598027
H            3.00511412814650       -5.83328462687146        6.34240400906979
H            2.54303157378383       -7.56034905965269        4.65550366173607
H            3.54940844116181       -7.39292276606251        2.41936770626888
H            5.02608103039549       -5.50727957492393        1.87459273526936
H            3.49448391103658       -2.83270569392991        2.09767392260514
H            3.32139835228912       -1.78575753943410       -0.12442544998019
H            5.14362508800480        0.47073248400885       -3.91848332279231
H            4.37859490481783        2.81167599796551       -4.10691458088951
H            2.11198157840577        3.19169501498880       -4.34735322564061
H            0.65764483438002        4.51839137140771       -5.82601704879052
H            0.32922034871497        6.91993359950943       -5.42950252123085
H            1.44993037421580        8.04101782744922       -3.53787486931002
H            2.84753949825755        8.68774626421953       -1.37369629811271
H            4.27516576186029        8.73326766285175        0.64246536280005
H            5.38447210608556        6.69719951917738        1.42206437811402
H            5.16675039534161        4.58540951312140        0.18325575255596
H            3.64192443527256        2.89495712099265        0.07890606519696
H            4.46639304202030        0.58988865582798        0.27202865846498
