78
 energy: -16.926142205366 gnorm: 0.000240527342 xtb: 6.5.0 (97a52f5)
O            2.09121122829536        1.80166409901151        1.55870389358097
C            2.83863884139414        1.19038095678550        0.81932597308191
C            3.34520251620846        1.80924254143946       -0.42538944862362
C            4.58445646836957        1.45575831966979       -0.94977999116237
C            5.04898377375303        2.04114483255360       -2.09985146373645
C            4.28735874510528        2.99393933903773       -2.78110494923110
C            4.78587695028487        3.62470757224327       -4.01925527149968
C            5.50076506353543        2.89666982614338       -4.96240757065890
C            6.29107042173440        3.56866581544986       -6.01652613213620
C            6.31267868611259        3.06504404376252       -7.31817719549528
C            7.06638077669078        3.67197774610994       -8.29743902162634
C            7.81936622503362        4.79025639983026       -7.99950929415068
C            7.81949467415854        5.29866029694176       -6.71605070194414
C            7.06819806150705        4.69404483143727       -5.73401030923242
C            5.51388232379648        1.41674756411304       -4.94100202595658
C            6.70418405127614        0.71366679833873       -5.13479387228355
C            6.72324811425575       -0.66262201492948       -5.10585958848853
C            5.55607172626784       -1.36785603298044       -4.88949607701533
C            4.36609446475878       -0.69181725553350       -4.70803862594890
C            4.34225579627883        0.68416776808578       -4.73790063127688
C            4.50872681700014        5.06526004329978       -4.21279806796598
C            4.08962677718587        5.56220226440765       -5.44824916046270
C            3.82362485408914        6.90225283215360       -5.61666178165686
C            3.96219466324275        7.77444226937184       -4.55553464489266
C            4.36618324820507        7.30146993701400       -3.32296823117550
C            4.63491629639612        5.96225518164749       -3.15104590640895
C            3.05435346953362        3.36007727017902       -2.23452124119081
C            2.59526865892683        2.77960727881330       -1.07671191163725
C            3.27545515839293       -0.18822631255523        1.14889243118024
C            3.72143620429334       -0.49072037161371        2.42971481690516
C            4.17404350374901       -1.75218685360357        2.73167319809195
C            4.17771030680457       -2.75596174462931        1.76623068356972
N            4.68731602308660       -4.06168656146944        2.06536270925124
C            4.46378453458658       -4.79948387463003        3.24942069107337
C            3.69968380435319       -4.51185808553699        4.37992575950048
C            3.65868892043059       -5.42751180495835        5.40322915333761
C            4.36023325539788       -6.63212872670571        5.32036255732478
C            5.10562014660266       -6.93964010272024        4.20706625752420
C            5.15527785091232       -6.01941579842318        3.16066284877194
C            5.82375562285274       -6.04349757588490        1.88017808043269
C            6.64250416961715       -6.99283942381600        1.26954677138954
C            7.15580033651811       -6.71778617335326        0.02429435941281
C            6.87301235696066       -5.51004021737412       -0.61704003430328
C            6.06866269031864       -4.56609014644161       -0.02637548314622
C            5.52588477245414       -4.83419603437845        1.23019105385243
C            3.69951396626072       -2.45842187343245        0.49301180054629
C            3.26066471392781       -1.19445940228293        0.18681449816042
H            5.18122497033994        0.72178032950816       -0.43644821741018
H            6.01431240825162        1.76869514652639       -2.48928682491308
H            5.72607932696371        2.19237498553577       -7.54807155224151
H            7.07011423564269        3.27238124156869       -9.29832268128745
H            8.40927301472569        5.26383833275388       -8.76715532872485
H            8.41018748870400        6.16913940370176       -6.48183833225180
H            7.07555781356883        5.08395542258810       -4.73099919472344
H            7.61370141297200        1.26573295654370       -5.29766002242410
H            7.65151873136037       -1.19063497106964       -5.25080045078422
H            5.57344857151529       -2.44520316500229       -4.86482044031103
H            3.45440362353805       -1.24201945898954       -4.54195843005715
H            3.41511597108606        1.21275438135122       -4.59875193199825
H            3.97616981361790        4.87990391562052       -6.27285651841804
H            3.50588507168789        7.27073559650651       -6.57826953629925
H            3.75255579923929        8.82321284992373       -4.68852706708800
H            4.47023259459263        7.98158877322574       -2.49348762441542
H            4.95093947203775        5.59137167968568       -2.19120690672383
H            2.46180267364622        4.10413013140412       -2.73803072327077
H            1.64806233079823        3.06673941414838       -0.65313641377311
H            3.71787827144028        0.28676724647604        3.17433409439541
H            4.56107177018411       -1.96984253532308        3.71130884031670
H            3.14348518029928       -3.59345963825419        4.43214549014764
H            3.07469047836864       -5.21468075935979        6.28351900169221
H            4.31285517676478       -7.33117925737870        6.13906605164008
H            5.64456835967401       -7.86747947331635        4.13162663983447
H            6.86092528289288       -7.91719474748691        1.77438915470307
H            7.78875962642671       -7.44139866505754       -0.46246743465187
H            7.29483395977222       -5.31536444702087       -1.58941127001166
H            5.86849960583093       -3.62652304675480       -0.50866861725062
H            3.66225300047313       -3.23985281465874       -0.24531045572780
H            2.89770193264877       -0.96804826794119       -0.80106220168461
