54
 energy: -11.820181369476 gnorm: 0.000325267699 xtb: 6.5.0 (97a52f5)
O            1.42809234476391       -1.13091351213285        0.39509201491233
C            2.62427681951058       -0.90891456079737        0.48181323651843
C            3.16593245099732        0.39021864684185        0.03560786672238
C            4.45545660601160        0.52301601773286       -0.48102561689746
C            4.92362467583976        1.74618183208662       -0.88535760488374
C            4.12169713644681        2.88716465875721       -0.79038580028362
N            4.62659439181705        4.17910419423682       -1.17429071757503
C            3.98594164282271        4.94154432610661       -2.19176916767796
C            2.91332068297779        4.43385741150774       -2.90871061911595
C            2.29816376495032        5.17784209246676       -3.89521630457813
C            2.75338956383172        6.44546164997771       -4.18583413239398
C            3.82965610837354        6.96371182700329       -3.49795062677048
C            4.46571433897451        6.22883174103218       -2.50435800938146
O            5.56450396244173        6.78738167930102       -1.86031305940606
C            6.19553738451682        6.03565915270512       -0.87497540063561
C            7.29059359410585        6.58312574760313       -0.21682926218916
C            7.93606232270207        5.89128818245032        0.78557058467133
C            7.49178200374768        4.63968226090820        1.15198958321136
C            6.40778250878107        4.07769581900943        0.50865866015281
C            5.75341187146456        4.74747622173531       -0.51401637941664
C            2.82110188742976        2.74481725360824       -0.29876920926290
C            2.35349529840677        1.51893051293258        0.09829666768799
C            3.52071765208269       -1.94174898835674        1.04633740355289
C            4.70727557616647       -1.60943965931588        1.71874076059133
C            5.50725232289759       -2.58102283357648        2.26716382956280
C            5.12978398878865       -3.91161298918360        2.16483186356904
S            5.95848998959290       -5.33261107036195        2.77740107092357
C            4.71412684475469       -6.41739876472051        2.17417703242465
C            4.64989940460744       -7.79759470163340        2.28002572857739
C            3.57715489132509       -8.46521076019184        1.73463362929282
C            2.56631410980361       -7.76612622579516        1.08328059556748
C            2.62016772799939       -6.39713039512461        0.97192073850075
C            3.70475563388403       -5.70697900603200        1.52102912503338
C            3.94538441455951       -4.26507904544307        1.51312945095193
C            3.14106469855905       -3.26922787516078        0.95993825792640
H            5.07493866048724       -0.35149638873973       -0.57834057270386
H            5.91424666217548        1.84401079410129       -1.29391315244866
H            2.56593361355240        3.43904207146080       -2.69566838601423
H            1.46300106668323        4.76706974973270       -4.43813244014745
H            2.27304661247415        7.02920801169157       -4.95373286478831
H            4.20280670168752        7.94724192108248       -3.72141766785727
H            7.61854856815677        7.56583799668274       -0.50524945167916
H            8.78246052156697        6.33205048516341        1.28604670627309
H            7.98872715435876        4.10070628700927        1.94165480238197
H            6.05321309170271        3.10927868609134        0.81121472273459
H            2.19830504268088        3.61877327029326       -0.22170892844313
H            1.34959409800830        1.40601168966379        0.47072217857730
H            4.97593282968103       -0.57271765241059        1.82187180460632
H            6.41625498160262       -2.32761157006447        2.78441988633644
H            5.43745805309021       -8.32718497690465        2.78742472571733
H            3.51909518957329       -9.53825181349232        1.81372500326343
H            1.73237879702077       -8.30370962753731        0.66300374739240
H            1.83972463636147       -5.85305962412215        0.47029260584768
H            2.21443510320828       -3.51906014993264        0.47693109110227
