78
 energy: -17.115613808140 gnorm: 0.000603900987 xtb: 6.5.0 (97a52f5)
O            0.78529949939621        0.41681849196708        0.21634358485589
C            1.85878944791840       -0.08069213721760       -0.08062833116749
C            2.66584754859886       -0.75995768262955        0.95297158736520
C            4.06139982625613       -0.75028661897825        0.93617600233211
C            4.77606851482154       -1.38747637412312        1.91664277758342
C            4.12569804040984       -2.05761280086143        2.95676432994906
N            4.87713460226543       -2.75091072418516        3.96974852042619
C            4.77137351331998       -2.38273680845642        5.34117998393731
C            3.97974697949912       -1.31889987078135        5.74538632492529
C            3.88553305832410       -0.96454176086098        7.07606690057953
C            4.59139180034924       -1.66885090271249        8.02667188568216
C            5.39846253869791       -2.71943714926031        7.64564955505415
C            5.51020305888938       -3.08906533424412        6.31064363465818
O            6.36034258462512       -4.13798738207130        5.97682879322211
C            6.46119331742941       -4.49545147757805        4.63659243779392
C            7.29240626413206       -5.55364217225222        4.28892750262761
C            7.40840466147699       -5.96471682298969        2.97830112477940
C            6.68895763155045       -5.32626361495044        1.99211769213024
C            5.86077027449875       -4.27094354823473        2.31669986664534
C            5.74012857155365       -3.83031048683960        3.62560046963693
C            2.72835468056973       -2.04327630578488        2.98425685827075
C            2.01649161863151       -1.40039421525181        2.00514092172544
C            2.33564720383765       -0.00521732704113       -1.47942733402872
C            3.23607648428315       -0.92349057858344       -2.01544208511670
C            3.62167938051779       -0.83469665615052       -3.33483509732930
C            3.11621751335653        0.16440438250041       -4.13726176053322
C            2.21387906697670        1.09199180623228       -3.63112490869428
C            1.65607381214132        2.12146339420057       -4.53636930210670
O            1.59085582632382        1.90043846866322       -5.73399207678118
C            1.17273016304321        3.40833636479881       -4.00132034240361
C            0.19386674977581        4.10368559198465       -4.70591317370166
C           -0.27735668929135        5.30823716798132       -4.25285084960334
C            0.22396441129547        5.87202984154536       -3.07649365625491
N           -0.26661325180783        7.13799001193082       -2.59798321462916
C           -0.91939135691022        7.23815294301297       -1.33690316513439
C           -1.13790157801929        6.12066408589756       -0.54627130757876
C           -1.77555103007590        6.22414990959710        0.67335322518331
C           -2.21212596794773        7.45252210849833        1.11921499038131
C           -2.01800447339710        8.57495815965443        0.34266961931567
C           -1.38009347938480        8.49178476235372       -0.88914227162085
O           -1.22562206414003        9.65071507271831       -1.64281409888629
C           -0.57744312051948        9.55110688208404       -2.86952979643533
C           -0.39167174796513       10.70368005037915       -3.62343862546051
C            0.26448464439490       10.66169069807225       -4.83514385584888
C            0.75069818959085        9.46420336151869       -5.31245938784267
C            0.57336405458043        8.30781239326019       -4.58026818770828
C           -0.09423482662128        8.32446335853531       -3.36557866048309
C            1.22134801322759        5.18276464025787       -2.38121976895913
C            1.68905345954012        3.97784950361832       -2.83638899833640
C            1.82000566404035        0.98128553470463       -2.30370060985163
H            4.57322302184705       -0.21588730349937        0.15482434124205
H            5.85188847776655       -1.36930321703388        1.90805332575497
H            3.43995408720736       -0.75733460284446        5.00461229922783
H            3.26077154820726       -0.13744973156209        7.37053602488928
H            4.51759842459632       -1.39545603490886        9.06637080966038
H            5.96446107373063       -3.27079145822068        8.37510566285525
H            7.83892855140189       -6.04969308222527        5.07101310661192
H            8.05560167432728       -6.78891695059306        2.72736062358992
H            6.77029584722770       -5.65199702103537        0.96832027335999
H            5.28720446144843       -3.78723682558641        1.54702446928317
H            2.22079282995560       -2.55992689907911        3.77999393425049
H            0.94019700619576       -1.38191879928899        2.02897013345712
H            3.60644865162383       -1.72286620470568       -1.39805872140437
H            4.31149876716119       -1.55459574759128       -3.74352518556330
H            3.39386703902954        0.23303806866647       -5.17531691419358
H           -0.18497542507694        3.67015726200866       -5.61588460717374
H           -1.04851421472705        5.83172577934431       -4.79030422019396
H           -0.81077288483898        5.15883852563077       -0.89794856579819
H           -1.93228413296035        5.34432627376777        1.27530754937565
H           -2.70923186110803        7.53602648016991        2.07159305980221
H           -2.36126228869198        9.53877665206748        0.67397410539145
H           -0.76804127903229       11.63278110343144       -3.23407178612556
H            0.40191746562799       11.56577951111323       -5.40509236138372
H            1.27098035333060        9.43026216591806       -6.25538611061987
H            0.96697158497275        7.37743338794138       -4.94785708348242
H            1.62762445772860        5.62506248778711       -1.48842494094955
H            2.47873661347682        3.47280550990463       -2.30818678655846
H            1.07833706558507        1.64777043640092       -1.90071015808951
