54
 energy: -11.723612534718 gnorm: 0.000583898960 xtb: 6.5.0 (97a52f5)
O            3.14927053221174       -1.67182881752769       -2.22575414094898
C            3.59917210764842       -1.27736903964832       -1.16426223072694
C            3.81648866887104        0.16954839054914       -0.94752157266703
C            4.20408264385503        0.96280130358084       -2.02315534790095
C            4.43253013532112        2.30498019612389       -1.86012427453604
C            4.26013368827863        2.90875426925420       -0.61212616976750
N            4.58772111167282        4.30017030960818       -0.40255382088958
C            3.76782998907434        5.33281446971946       -0.96280210252521
C            2.85548584193104        5.03398972151321       -1.97090499659520
C            2.08250121205878        6.01611149007492       -2.55211610508409
C            2.19918154018798        7.32278321205451       -2.13151578053567
C            3.07973267806373        7.63643355483193       -1.11394642086166
C            3.85205344283873        6.65764099707989       -0.51847654162006
S            4.88744102506534        7.14809468387877        0.82580558213701
C            6.09035947702850        5.85806766228875        0.80183729699218
C            7.31491371180706        6.10994703649792        1.38977306510024
C            8.29299057940574        5.13457750552845        1.43641250236750
C            8.04545468063372        3.89390622800649        0.89037239750774
C            6.82866345273479        3.63437214831082        0.29786722877989
C            5.83256202985679        4.60509739278169        0.23726917478215
C            3.85033116299224        2.11533110381418        0.46156903606526
C            3.62604384521958        0.77274245669836        0.29557687615411
C            3.94407286715604       -2.25365617939337       -0.10714678864382
C            4.88526415079082       -1.96850904002295        0.89409257133532
C            5.21302930506987       -2.90224612203574        1.84572985345261
C            4.61375823025186       -4.15256712074574        1.80768512650755
S            4.85587160569130       -5.51452420979655        2.88796943118059
C            3.72197807646932       -6.52353915159690        2.00155471746515
C            3.35058615808194       -7.83383983956571        2.25895664179000
C            2.43921930479650       -8.45016493761469        1.43242765560019
C            1.89371055097198       -7.76890977477645        0.34920454281827
C            2.25349805025421       -6.46866158044138        0.08546162105174
C            3.17745520317935       -5.83089371295953        0.91818832098349
C            3.68694636911098       -4.46453473373873        0.80979244652749
C            3.35902283222978       -3.50599876842590       -0.14846497640014
H            4.32793207371650        0.49556981982981       -2.98519483655884
H            4.77323797765953        2.90536307469159       -2.68552641256456
H            2.75254499331790        4.01583001992861       -2.29824130665804
H            1.38788660453543        5.76215688500779       -3.33589045977416
H            1.60005289341670        8.09486878568592       -2.58545651272571
H            3.16453941464135        8.65127870867688       -0.76189049511487
H            7.49434404021997        7.08115232268261        1.82039834790215
H            9.24324793075324        5.34303821786878        1.89957695813343
H            8.80299337298317        3.12829517357285        0.92459084890975
H            6.63892634968875        2.66862076782107       -0.13560545512358
H            3.71904053989529        2.57924492066465        1.42340951629422
H            3.28988738453956        0.17373223868356        1.12411840956714
H            5.37011304840382       -1.00815889869622        0.89811310713775
H            5.93387337271557       -2.68446876777016        2.61455312136199
H            3.78010640137150       -8.35085298106510        3.09944719553440
H            2.14665452649540       -9.46930697046048        1.62466359150404
H            1.18300401637626       -8.26669161254733       -0.28976639065648
H            1.83457438802427       -5.93871591059785       -0.75149917589878
H            2.66331441043219       -3.73333689783889       -0.93504487007891
