84
 energy: -18.319015610847 gnorm: 0.000880070328 xtb: 6.5.0 (97a52f5)
O            0.61979543347709        0.55406784832989       -0.82169669386591
C            1.83071173466564        0.49155178875043       -0.92160882262011
C            2.66547747825026        1.58131984106953       -0.35412625401635
C            2.23524644652039        2.15828874486743        0.80945793553177
C            2.96691615465329        3.16294873901951        1.43495408319711
C            4.16374131463895        3.60119517498739        0.93065721577980
C            4.64844984874970        3.03760224997576       -0.28048780422510
C            5.88843433795330        3.47053941651147       -0.84984012035039
C            6.26174452964465        2.96891391653042       -2.07808603999428
C            5.48139233543364        2.03358540785075       -2.75203155540550
C            4.32619147640027        1.57624453563904       -2.19989002039673
C            3.87907038964769        2.04866323152990       -0.94951322752422
C            6.76164984522384        4.38948799341473       -0.09738845237461
C            8.06351851918472        4.66874522133215       -0.52021880388312
C            8.89737939258513        5.48194220004363        0.21297282907735
C            8.46324105346314        6.02182317019905        1.40024283602851
C            7.17821952960559        5.75874755547609        1.86333954079411
C            6.31544905050800        4.95676949396537        1.10311270000149
C            4.89175672150814        4.75809593975135        1.59536299128467
C            4.86088734081688        4.69183669847580        3.14980756436644
C            5.66746769930451        5.78278166363579        3.76961564993265
C            6.73991262670140        6.27373510057340        3.15705815438129
C            2.47506783029164       -0.67628687763858       -1.58887133467288
C            2.08442597204542       -1.02444716219935       -2.87089239960999
C            0.99067130881911       -0.24183061370865       -3.53378297957891
C           -0.39097772429150       -0.85237572370988       -3.28920875903167
C           -1.50363578956019        0.08405385771657       -3.64694596855695
C           -1.78020694787497        1.15857684367413       -2.81663028827463
C           -2.78145645896881        2.05271532460546       -3.13197351812308
C           -3.51668826927328        1.88281991062655       -4.28710359336427
C           -3.24656379482250        0.82079886116993       -5.12538211235089
C           -2.24323519691459       -0.07269312389841       -4.80870361675600
C            2.68794756032617       -2.12726735937499       -3.53086272576027
C            2.28972931961919       -2.52904995131678       -4.84127662010003
C            2.88078294546148       -3.56572720255806       -5.47419070823992
C            3.92653077427233       -4.30692582745283       -4.85424268754142
C            4.54580017521371       -5.37892563453041       -5.50618547894858
C            5.54588563344628       -6.08403913817374       -4.88868052483619
C            5.95632234408421       -5.74785817428031       -3.61015087035854
C            5.37662651164067       -4.69241466238427       -2.91515591662300
C            5.79054725181974       -4.32395602062149       -1.56254839250196
C            6.79010312975096       -5.00418163440671       -0.87671966815646
C            7.16224331698053       -4.64166183713752        0.40689890591604
C            6.54644665479044       -3.59408556470017        1.03992388332806
C            5.53248879258568       -2.87346326892045        0.39773308399756
C            4.87266205640455       -1.78836409699169        1.03882865836979
C            3.89604982350464       -1.09896487553672        0.40889570028299
C            3.49233747953870       -1.41835514797343       -0.91714795623159
C            4.11526715551384       -2.49530844043591       -1.57297665390293
C            5.14946599651877       -3.23485105181591       -0.91505099472331
C            3.71195374800175       -2.85244768901785       -2.88646442981259
C            4.34256040975809       -3.95314150355688       -3.54941391242570
H            1.30484215984941        1.82072126208579        1.23380923791244
H            2.56894438846552        3.61449744141634        2.32615681588193
H            7.17243541835056        3.30183186429997       -2.54093342159473
H            5.80273935975120        1.66182057379541       -3.71146345238897
H            3.73792520629556        0.85118729480548       -2.73014440721246
H            8.43894233568659        4.23102177241390       -1.42684439790455
H            9.89727082406705        5.68369413654684       -0.13555929132085
H            9.11898113326759        6.64047062717253        1.98862649756517
H            4.34486135295365        5.66912616741999        1.30205213554987
H            5.25540534784778        3.71972773494519        3.46544314804232
H            3.82913701716428        4.73445208088349        3.51793683529993
H            5.37182103824249        6.17181895055330        4.73051150775888
H            7.32354570518949        7.05139934949882        3.61871495640008
H            1.18411714133044       -0.12469523284391       -4.60476555752141
H            1.00173474101968        0.78102634982816       -3.14055395498061
H           -0.47941000128517       -1.11059227893276       -2.22693096673139
H           -0.49629145829975       -1.79836432892324       -3.83114039431882
H           -1.18716377843856        1.28194335185805       -1.92500284479204
H           -2.98695785179432        2.88426651122367       -2.47784664842833
H           -4.30061998252680        2.57983831561607       -4.53488032843910
H           -3.81985301589144        0.68919824981873       -6.02831302608602
H           -2.02707367133410       -0.90020679399501       -5.46199358272784
H            1.49340690725729       -2.00105021015494       -5.33400990913849
H            2.56358092007406       -3.84957987714165       -6.46289540065265
H            4.22689817927505       -5.64373756109246       -6.49964420365964
H            6.01481367669782       -6.90808604303633       -5.40136790231823
H            6.74090152332991       -6.32258763135587       -3.15332397265880
H            7.29073931315793       -5.83256589260283       -1.34329343267043
H            7.94116973859032       -5.18918361577421        0.91218754972597
H            6.83608135914058       -3.31583089687496        2.03865413513793
H            5.16537025836409       -1.52338802606695        2.04015609386776
H            3.40854944654031       -0.28642179271785        0.91601635525686
