81
 energy: -17.873721195558 gnorm: 0.000464785297 xtb: 6.5.0 (97a52f5)
O            0.93201905789609       -0.34300802225723       -0.22064897477475
C            2.02234323788016       -0.00701674911496        0.20310128122235
C            2.76453759789965       -0.92475043411461        1.10590061059517
C            2.22972669700635       -2.17810654025647        1.22728950827405
C            2.78703328162836       -3.14144265378144        2.05969167876388
C            3.92061158549970       -2.89083354703016        2.78484338251039
C            4.52854746788227       -1.60960651425306        2.69150997080361
C            5.71269481096039       -1.30997489204344        3.44103787557830
C            6.22963072114422       -0.03496173192768        3.37787661942394
C            5.64474843322521        0.94790568145344        2.58778826531876
C            4.54026851105625        0.66768083780369        1.84752396876015
C            3.94154574041492       -0.60920732059050        1.86484874908469
C            6.38661227948301       -2.36578098048590        4.21977266619591
C            7.62513211256094       -2.14889462976204        4.82944989031510
C            8.27783581252352       -3.15251822854583        5.50870121311577
C            7.72491171263013       -4.40892416533566        5.57992074975409
C            6.49829278619627       -4.67025957200932        4.97881366121181
C            5.81432654749031       -3.63975941865814        4.31845047101356
C            4.43443784573863       -3.93642536355795        3.76029857517944
C            4.38449547149705       -5.38644342619095        3.19793495794354
C            4.96372903062329       -6.37010743046577        4.15837406815033
C            5.94218289459803       -6.02036159149663        4.98741235002321
C            2.57713595214911        1.30892694922293       -0.22252596447407
C            2.18138292374258        2.47208888975182        0.41658142394487
C            1.19794868539545        2.39526552363333        1.55346146917209
C           -0.19968778790039        2.78214029905903        1.16339612505706
C           -0.84139386203026        3.86748970747230        1.74138796026005
C           -2.11966404291933        4.21462960966349        1.35465605064791
C           -2.77478888208776        3.47865203829175        0.38923868176352
C           -2.15246105173124        2.38989579620902       -0.18417963095198
C           -0.87561817166216        2.04567770009428        0.20443258434823
C            2.71080045258656        3.72211964701638       -0.00181335369889
C            2.32773462794403        4.94609345047438        0.62166432724758
C            2.84975333244299        6.13207845720157        0.24033392644506
C            3.80561656833421        6.21057318693630       -0.81202544780304
C            4.35515153731523        7.43432902203183       -1.20959474678996
C            5.26750191448452        7.48735672134813       -2.23129629194702
C            5.65674881648218        6.33192337448523       -2.88699273268911
C            5.14423833459689        5.08877841431844       -2.53425761179946
C            5.53847189827422        3.85679792415113       -3.21602142412641
C            6.44010972704251        3.84235314086662       -4.27367617107963
C            6.79718741838024        2.66151118198770       -4.90304415139962
C            6.26611625687180        1.46577380135103       -4.49508300469379
C            5.35172455093902        1.41945104554502       -3.43602004688667
C            4.78219726104139        0.19026325427383       -2.99700008431994
C            3.89552874937748        0.15982292620002       -1.97693939380869
C            3.50086280996864        1.34794267019457       -1.30469530709301
C            4.04093944124564        2.57783235192680       -1.71336295444686
C            4.98104110705320        2.62244702584902       -2.79037152592440
C            3.64724992948037        3.77230316735377       -1.05653117802996
C            4.20257774403558        5.02426062182182       -1.47180645257705
H            1.33558730838027       -2.40170610483032        0.66986528758122
H            2.29495997574481       -4.09317242444198        2.15311530926625
H            7.10419739116130        0.22247726839283        3.94609372015606
H            6.07639035732854        1.93533876235033        2.55716873601071
H            4.11832862074855        1.44673791106476        1.24639438670387
H            8.09562254305668       -1.18534144533377        4.76359901982566
H            9.23106742673334       -2.95785225421841        5.97281618999310
H            8.24231601322897       -5.20355807360798        6.08956732196518
H            3.75074042191697       -3.90501672029697        4.62457976362490
H            4.94665477969654       -5.41622979709299        2.25811439338190
H            3.35619297966359       -5.66986594518416        2.94526054310645
H            4.57926003909191       -7.37703331225263        4.17378731513164
H            6.36263833605791       -6.73948742849416        5.66895385752993
H            1.54666416502391        3.01590784873142        2.38478737087280
H            1.17910905005188        1.37592059178358        1.95304491699447
H           -0.33848586745474        4.43473552517607        2.50562635881993
H           -2.60805090803826        5.06080340573443        1.80977476733886
H           -3.77376247077082        3.74962761366854        0.08866107943108
H           -2.66449229788694        1.80471125723472       -0.93046492397911
H           -0.38889195255114        1.18189755639107       -0.21533602660072
H            1.59453427023380        4.92346843648582        1.40597768644473
H            2.54297680464888        7.04165110898398        0.72736604612071
H            4.05259307777829        8.33470763613411       -0.70309858269078
H            5.68405571396473        8.43617244317952       -2.52780992350855
H            6.37244443647533        6.40829956566814       -3.68484786032133
H            6.87286906383983        4.76276916944053       -4.62028922409893
H            7.49789157742137        2.68391465781343       -5.72178206939561
H            6.54554545397308        0.55009128492353       -4.98714398119183
H            5.06861388791889       -0.71981861241001       -3.49505020190397
H            3.46766992590864       -0.77520113109151       -1.66013788939607
