63
 energy: -14.087061867840 gnorm: 0.000788326055 xtb: 6.5.0 (97a52f5)
O            4.05516255738478        1.76893056143706       -0.97809061461249
C            3.98811696030098        0.65328493076419       -0.49534346404061
C            3.73429104124151       -0.51993211026051       -1.35724086346701
C            3.07886110433092       -0.37398043315264       -2.56411046905023
C            2.81331131636610       -1.48555972345831       -3.32432844218910
N            3.14674193419495       -2.72172010082755       -2.98991259764668
C            3.79002260865026       -2.84796022778604       -1.84053693826234
C            4.10796052238170       -1.80571511500550       -1.00650498943767
C            4.15602037630102        0.47190202080252        0.96710143743415
C            5.20060101729345        1.12660102168789        1.59594890240779
C            5.42523398206733        0.99375028052924        2.95591681481697
N            6.52240544354990        1.67869764142374        3.58010692812589
C            6.84473264459942        3.04069341541909        3.41870370552186
C            6.22466502491817        4.04603557906323        2.67726356348313
C            6.75892965855493        5.31020268253888        2.70301086712826
C            7.90088029483282        5.59501544181344        3.45698880866660
C            8.52104451624611        4.61806649024061        4.19740817079714
C            7.98925362418760        3.32799003554909        4.18172766920268
C            8.39317630603930        2.10179115889429        4.82738492273977
C            9.45761291035785        1.79213181218345        5.67509591824036
C            9.59153391328576        0.49873648313192        6.11834548716992
C            8.68669144898706       -0.49257305178688        5.72834372002535
C            7.63558565610588       -0.20337389246694        4.89404195730463
C            7.47961606456413        1.10626256941971        4.44122429791402
C            4.56961564523720        0.18912508422438        3.70212800738554
C            3.51608822982553       -0.45236815834267        3.10048093219433
C            3.28028848935938       -0.31855284126370        1.73597038524764
N            2.14879516166212       -0.97507823657732        1.14330186043924
C            1.15203127482461       -0.37929725272270        0.34119514367662
C            0.95089768442284        0.95005783910829       -0.02646215768381
C           -0.08750751360056        1.25153985757995       -0.87208598070410
C           -0.93455052889197        0.25172921880538       -1.35707521705173
C           -0.75311563746124       -1.06282215524143       -1.00127814470464
C            0.29767600280961       -1.38409700901913       -0.14182339137764
C            0.76860463768055       -2.64020281693251        0.39062454178811
C            0.33192590286388       -3.95456002437213        0.22409972762349
C            1.02614843777000       -4.96325001590989        0.84722018391145
C            2.14929637496782       -4.68586796747414        1.63090967908676
C            2.59083950147391       -3.39750216079169        1.80352789116101
C            1.89432065861905       -2.36209648795865        1.18297518710154
H            2.77742097289957        0.60971452345573       -2.88105385109422
H            2.29337214501243       -1.36963366497118       -4.26314546382947
H            4.06572787908492       -3.85216900308387       -1.55633568751912
H            4.62387953821816       -1.97748592286487       -0.07791016398349
H            5.85706651635743        1.74137363325143        1.00799470405874
H            5.34430630208662        3.82135294562593        2.10229995615701
H            6.29158887175679        6.09591339031442        2.13253595920640
H            8.29965985446447        6.59595773473729        3.45687872551116
H            9.40042981844166        4.82847214704444        4.77999700300546
H           10.15383721379372        2.55919917297609        5.96468899273084
H           10.40842523952632        0.24237725395372        6.77245243445606
H            8.81869513099868       -1.50038172184547        6.08629044942538
H            6.94392057621438       -0.96401788295065        4.57963121456674
H            4.73366805226230        0.09745001621069        4.76131939308067
H            2.83989929100851       -1.05301673745829        3.68315349537921
H            1.62504615926435        1.70878233090326        0.32945972375383
H           -0.24632283071505        2.27370453313272       -1.17385199399148
H           -1.73911577111651        0.51625080908312       -2.02316578368426
H           -1.39591392076414       -1.83954751245376       -1.37605826348821
H           -0.52713016698672       -4.16041601146415       -0.38950486917788
H            0.70370378976292       -5.98422036643335        0.72657363684770
H            2.67877461087919       -5.49690833424772        2.10315948045763
H            3.46253547924675       -3.17682567613097        2.39285746780196
