33
 energy: -6.779888241580 gnorm: 0.000773665832 xtb: 6.5.0 (97a52f5)
O            2.69565336444521       -1.21524269838996       -3.95041550604223
C            3.23604413311645       -0.74596125033678       -2.97213904611644
C            3.11596580336533       -0.91023257227346       -1.52938233656751
Cl           2.02862144137877       -1.78128329512720       -0.46419699234103
C            4.10549681487761       -0.00317260459860       -1.26928831340105
N            4.54523208801940        0.53026772784195       -0.05901245044244
C            5.53063803157703        1.48685187000929        0.19011529114223
C            6.35290221882416        1.92773567871238       -0.84351391532311
C            7.30906345338346        2.88940087121254       -0.63370610952386
C            7.47368165517155        3.43559562264097        0.62535112002897
C            6.68622130532062        3.00788474067296        1.66727987449775
C            5.70827624801300        2.02994210102690        1.48734535855226
C            4.90727349617057        1.60140191531797        2.61464694578014
N            4.00118038681698        0.66841223936992        2.55890544938684
C            3.37834589226288        0.45823829897364        3.77119258012635
C            2.36268078860669       -0.47827564801305        4.00612952407481
C            1.82906997227156       -0.58918549766771        5.26445198838375
C            2.28509037885692        0.21700524218789        6.30562371929985
C            3.27989408915670        1.14139197756476        6.09234968545291
C            3.82741808810089        1.26303507663473        4.82456668260199
S            5.07566514255745        2.31121688868529        4.22862063479623
C            4.32343011707961        0.26979961034481       -2.73108090406190
Cl           5.90629580776941       -0.23524381497638       -3.33068205466896
Cl           3.87310512472011        1.90629103975884       -3.21574610223556
H            4.01352630721091        0.22104176354094        0.74872518089024
H            6.24108712470246        1.48085677179058       -1.81465170570304
H            7.93251457960460        3.21693144411729       -1.44937930957987
H            8.22203711602970        4.19324410097863        0.78950278798169
H            6.81911813925992        3.42879640802992        2.64820170668090
H            2.02018237471558       -1.09256353621952        3.19216593393629
H            1.04807994842915       -1.30771321000618        5.45048986597906
H            1.85251675685525        0.11449981309741        7.28706264646502
H            3.63959181115829        1.76945292121850        6.88866777585776
