23
 energy: -4.811221866223 gnorm: 0.000548328443 xtb: 6.5.0 (97a52f5)
O            2.50093112647050       -2.68657583188095       -2.13506930564884
C            3.27167603871894       -2.35720551397264       -1.25838923292065
C            3.16455455705502       -1.24425294035986       -0.32455847909439
C            4.23932256715623       -1.25549041881031        0.47686688168695
C            5.08728187356549       -2.36706389623838        0.09933749022132
C            6.28204963027007       -2.77666719714569        0.61448459416141
C            6.96574154936457       -3.91463593348416        0.08912895662144
C            8.19450267437840       -4.34150261264347        0.61884828623414
C            8.83506511353457       -5.43738771701164        0.10255194341152
C            8.27864780810565       -6.14656560514624       -0.95637926753405
C            7.07995941291610       -5.75086697555590       -1.49217355305545
C            6.42651298430316       -4.64735341885386       -0.97843100529311
B            5.08156941976867       -4.18183115732922       -1.55881060186222
O            4.41245167940813       -4.79880021955940       -2.61614282564702
N            4.47598508961546       -3.01699182703598       -0.95502044226146
H            2.34706508713963       -0.54557472209362       -0.29861539229990
H            4.44665749426087       -0.55919380876909        1.27110288416365
H            6.71709145947814       -2.23333852255161        1.43254139374684
H            8.62803663644183       -3.79545887816157        1.43863128860755
H            9.77707565299576       -5.75362336425753        0.51901253597796
H            8.78972361326857       -7.00706981454932       -1.35547043749185
H            6.63070932638470       -6.28519196606067       -2.31169250798346
H            3.62839920539948       -4.20503765852875       -2.66480320374016
