82
 energy: -10.374974815307 gnorm: 0.023563345329 xtb: 6.5.0 (97a52f5)
C            1.31054529655413        1.96515465575873        1.68288541655660
C            2.27280398101224        0.87358740695869        1.27643812736116
C            1.48451947214131       -0.39170727495178        1.01719113059632
C            2.96159678944749        1.25843272924878       -0.01341536524292
C            3.30556526994371        0.64322686358623        2.40534659951320
C            3.20981100824194       -0.49448122047363        3.13601881091357
C            3.87683394242954       -1.03790811695110        4.21207973862266
C            3.41818981474595       -2.27451027269742        4.68848992265777
C            3.75323234496001       -2.95929282476937        5.73887822132121
C            4.59951844330797       -2.62118188311723        6.73618056092615
C            5.02338265141725       -3.43245516884863        7.71734045148862
N            5.75491393611987       -3.12910655408480        8.81606688021169
C            5.48063342090845       -2.25710880154640        9.75142919064438
C            4.40167793473075       -1.51209429973570        9.92626622495616
C            4.22862543212037       -0.61679593142974       10.88331704426917
C            5.11985716157882       -0.34433410054294       11.85216392709658
F            5.70116561801186       -1.16207444507236       12.75903484571359
C            6.94122247147011       -0.99450144830173       13.27944886745089
C            7.87920050649149       -0.12716244966016       13.05442093302514
C            7.86929978619390       -4.49279768266576        5.64320317812552
C            7.68243008854756       -3.24782345333166        5.27482440998401
C            7.42395117004438       -2.83099797028850        4.09300050701180
C            4.73992006993528       -6.34736624453895        5.62190553907019
F            5.18073774091472       -7.24968710866828        6.33115632896567
C            5.56654885122953       -6.71331002517930        9.89998391288796
C            4.89215035832929       -5.89066350293542       10.56120656172878
C            5.71552372665155        1.31180731253440        8.09370175313114
C            4.53692368309553        1.41932939355588        7.70441298476576
N            6.08195576936082        6.03557258796571        8.66482408438500
C            5.39952881093517        5.15752193273202        9.13930322498978
C            8.81719686797895        5.64731047798299       11.21041734420445
C            8.40478163852005        4.59539928716462       11.82692320645784
C            7.13582854099160        4.23136313623398       12.01329587740431
F            6.58394440786815        3.10634855128687       12.61981149224670
C            5.31538435137709        2.73057951960185       12.63243966347526
C            4.39905061833640        3.51247379914366       12.14335522615167
C            2.61016107329803        4.28432751962773        6.16724967672111
C            1.70013431527885        4.03658039787028        5.28332204622726
C            1.79516918639823        4.32150971519108        3.96186789467217
C            1.93546861221909        4.55580062204232        2.82125772509466
F            3.25143816444747       13.40496059724607        2.71521322670708
C            4.94219059012415        6.81367589717825        5.73187710969294
C            5.05940404280876        5.69093935858408        5.52962209762284
C            7.49867700320247        5.23004897843949        2.21505790041252
C            6.27472230724610        5.66344280185441        2.20132599743130
C            5.15986772051778        4.96854920624076        2.21581286702137
C            5.38736405134693        3.69939513531733        2.24959040698444
C            4.40495361598938        2.76224493818704        2.09221442468406
C            4.25314153517557        1.58242104578478        2.67823175936033
C            4.91002571111944       -0.42758329500460        4.78321744274070
H            0.97986474050131       -0.51170921398826       -2.18674244861036
H            1.78058214676224        2.92356453401580        1.78676224242363
H            0.79005880001353        1.73028104605364        2.58893644088119
H            2.12528506396171       -2.06470287712577       -3.83530530727182
H            0.90839399368977       -0.69582439994592        1.86664920463651
H            2.10992545535015       -1.20108062160952        0.69990284340806
H            1.23669244176324        1.53533535122597       -3.74407575908910
H            3.70339721352284        0.54493001731858       -0.30889952547058
H            3.38968831456728        2.23893120181151        0.01269741729249
H            5.04153750886104       -4.24547526673453        3.38237193198815
H            2.06334477623659       -5.39672332231386        4.91901781914494
H            3.17388250037641       -5.89198207278995        8.22011610967546
H            4.03607118748764        1.96449024467893       10.33828922713609
H            5.15698252512130        1.19647864068069       12.27429048645901
H           10.36871878192567       -1.79918440723982       13.18534538335273
H            9.89041916247965       -2.40766610314417        7.11726560012567
H            6.94315860398480       -0.78729952004331        6.60882073602794
H            7.84649512842244       -5.29618493387161        4.96887373853541
H            3.30704864120555       -8.53606917448193        9.01963583857714
H            2.58074649297605       -3.73912259597693       10.34842632570957
H            6.50001477128199        0.26871001465839       10.66712987210029
H            7.52182644402760        3.14922067053896        9.32380176278738
H            9.90038038303447        1.98918215834523       12.41630149615058
H            4.69559577459594        2.31275311849054       14.30436782762054
H            2.78123498914571        4.19798522866838        8.93272832793287
H            1.82827235941787        1.54651139357994        5.36356131731399
H            1.05965285046855        5.73816729170608        1.94196736972217
H            5.06341907194846        5.32459613976350        3.98257143967967
H            6.16322626860971        4.41652841905764        6.18240813384681
H            3.50892737263999        4.76727288773793        5.90418921916594
H            3.47462212972224        4.84985957901270        2.51548270657554
H            4.54793421730607        5.56042680042794        0.49663483438465
