17
 energy: -2.690501674666 gnorm: 0.000367840460 xtb: 6.5.0 (97a52f5)
O            2.05226627877085       -0.02184731038013        0.47128409569545
C            0.95818800110701       -0.00827867792569       -0.02777689478352
C            0.22385041790459       -1.27829444761817       -0.36129132612417
C           -1.18772655036579       -1.26789054214084        0.25642874864944
C           -1.95277000918047        0.02028686315928       -0.11170407344253
C           -1.16306686738698        1.28818248751134        0.27409990395505
C            0.24821444151747        1.27984799487410       -0.34428803759726
H            0.81004794103773       -2.12769432804359        0.00774109158374
H            0.17136604727280       -1.39060752701061       -1.44885385247912
H           -1.10411309676729       -1.34038192500001        1.34741600544743
H           -1.75258585342663       -2.15671365610407       -0.05588861056980
H           -2.94557259128183        0.02661348717266        0.35835000420025
H           -2.14274848559839        0.02963769574227       -1.19159120090944
H           -1.07762050334358        1.34360939368901        1.36595182083517
H           -1.71078414393516        2.19204976307445       -0.02534533662345
H            0.85053773222871        2.11314107338811        0.03529132445843
H            0.19746724144696        1.40715965561189       -1.43025366229566
