23
 energy: -3.644089709737 gnorm: 0.000368745253 xtb: 6.5.0 (97a52f5)
O            2.22117933695633        0.27052773418386       -0.65745651956990
C            1.15928686379643        0.04980292851213       -0.10793378073915
C            0.43243806621374        1.19221582803302        0.53371138159437
C           -0.82293777986189        1.59485794454886       -0.24189551852376
C           -2.03137687757796        0.70479814961671        0.04311689340118
C           -1.83979227790842       -0.76349901958265       -0.33187882445202
C           -0.74459859745096       -1.45931795488737        0.47092655456584
N            0.59849614789184       -1.21607775594492       -0.07659196045688
C            1.28539105577035       -2.31846120991151       -0.74668837143232
O            2.65704082635451       -2.33798978863246       -0.47695553786912
H            1.13520813934000        2.03183275862166        0.58753861561532
H            0.18466396417554        0.94484535943980        1.57024213151300
H           -0.59611387882195        1.57988322883922       -1.31451407362639
H           -1.07970946869717        2.63813268262451       -0.01304613993110
H           -2.91123586449327        1.10492283579607       -0.47850260125928
H           -2.27740446919288        0.76932956614958        1.10983165027571
H           -1.60193178557726       -0.84436487651275       -1.39867935379154
H           -2.79037597685675       -1.29841079134422       -0.20214526377517
H           -0.90724339229087       -2.54176709797018        0.49019916054736
H           -0.76334382045856       -1.14018346151982        1.51639637477455
H            1.13788210047920       -2.22685347378001       -1.82786088870638
H            0.87168858156905       -3.28063812814627       -0.43239136693683
H            2.96174910664089       -1.40416545813327       -0.51034256121759
