55
 energy: -12.204699295869 gnorm: 0.000484994805 xtb: 6.5.0 (97a52f5)
O           -2.26175637712135       -2.35118427741340        0.55760439935051
C           -1.71216849853152       -1.35584227901270        0.12504852670817
O           -2.38616706578100       -0.38351952070791       -0.59153772907133
C           -1.73854524926807        0.73674618248181       -1.08232488616688
O           -2.31600789099618        1.60448596839681       -1.71181327211896
C           -0.30032733096707        0.90192537244136       -0.84723730479656
C            0.36519378639672        2.01004627818686       -1.32299719643730
C            1.72232112587713        2.16784821914584       -1.11545785743570
C            2.46816174921549        1.22342828743159       -0.42652618306869
N            3.88408761297957        1.38279538625431       -0.31701631954258
C            4.41349870506847        2.71697997459148       -0.18710841069896
C            5.58775351889172        3.07762671946275       -0.83882189871113
C            6.10902712953430        4.34296002347711       -0.69350691099881
C            5.46685640623624        5.26812731589272        0.10497473675624
C            4.30085167211382        4.92378811399793        0.75874336241615
C            3.77817471038517        3.65883593430867        0.61569510629091
C            4.79011548953069        0.28250168053699       -0.44979058240774
C            5.79514997984447        0.05998480764231        0.53019479084567
C            5.92991361544190        0.89836285720681        1.65781709431309
C            6.87797445522233        0.66302876320236        2.60552863098818
C            7.74469161213777       -0.43113790053719        2.48491035548235
C            7.64145511503891       -1.27548384028082        1.42492541306241
C            6.66114625355971       -1.06548907031418        0.42135881470737
C            6.51589077770735       -1.94699295295992       -0.64808511545096
C            5.53863250124200       -1.75231282281826       -1.62228457389939
C            5.38988470424198       -2.65114415984096       -2.70957327670341
C            4.44488360422841       -2.44053931378618       -3.66332278598204
C            3.60262789971444       -1.32351981969635       -3.59023474958158
C            3.71511023805577       -0.44239446630372       -2.55914147806938
C            4.66896541709828       -0.62749724694089       -1.53477475755503
C            1.79697379237058        0.07716370372488        0.11006869567882
C            2.44795211849640       -0.89879583265283        0.88438216149853
C            1.77062653354792       -1.98106401978820        1.37301167336373
C            0.41304747560025       -2.13450065726276        1.11820796679410
C           -0.27270623103573       -1.19826907202749        0.38335233644931
C            0.40988012243729       -0.07420835066756       -0.12251010851267
H           -0.19831451614781        2.74751521050757       -1.86951384422005
H            2.22684590725829        3.02598658106653       -1.52298722389289
H            6.08192806949336        2.35030135376524       -1.45863200850324
H            7.01978476593047        4.61124722302022       -1.20280005685696
H            5.87544560260523        6.25876972100914        0.21862646986083
H            3.79941968283015        5.64588597760183        1.38169276245285
H            2.87501563322178        3.38012247033568        1.12994174041744
H            5.26377989452811        1.73425972831863        1.76269582526246
H            6.96506172200325        1.32018504375332        3.45493355461433
H            8.49214345254095       -0.60405669523345        3.24146698536450
H            8.30091426206172       -2.12146596322914        1.33838015511805
H            7.16776329992840       -2.79832990797754       -0.72006600955892
H            6.03961042194331       -3.50693818416081       -2.76928036634086
H            4.34159008745016       -3.13230998460598       -4.48296348242588
H            2.86077362105450       -1.16479835599496       -4.35545774240246
H            3.06832989128255        0.41356535792788       -2.51537733269864
H            3.49317529398968       -0.78268889292506        1.09904000544298
H            2.28977550692400       -2.72051206262377        1.96023038839217
H           -0.12780207742280       -2.98515860591113        1.49777151248426
