49
 energy: -10.817331147768 gnorm: 0.000975011949 xtb: 6.5.0 (97a52f5)
O           -2.21343022600673       -2.08038389413851        0.55813474161200
C           -1.58507895522218       -1.12221063905339        0.14970311483620
O           -2.17874458923026       -0.07877358308772       -0.53727369658536
C           -1.44301952130882        0.99848987043239       -0.99903515710226
O           -1.95094665389008        1.93254375795199       -1.59281028066820
C            0.00499145692445        1.03470026690634       -0.77431002164559
C            0.75841303726665        2.09767903451092       -1.22346923627306
C            2.12375285081566        2.13735469758967       -1.01929712684539
C            2.79330551226209        1.11480569062716       -0.36192089550681
N            4.21045723154015        1.18062594086893       -0.21869275035598
C            4.83853154068279        2.45138252884155        0.02021854443580
C            6.02734924693340        2.79533718119712       -0.61567546495958
C            6.61712009383621        4.01724521194465       -0.38591110782456
C            6.03050469953213        4.91697048335611        0.48150042119982
C            4.84965888154639        4.59141585750798        1.11725575525770
C            4.25848916404652        3.37001385667826        0.88996749648794
C            5.03533147312454        0.02931821785221       -0.44753742514675
C            6.21291155322447       -0.17030133302016        0.30546361441453
C            6.98563465120755       -1.27176071496458        0.11955793442759
C            6.62747272003293       -2.25268475797686       -0.83472907349981
C            7.40098720300476       -3.41233924670885       -1.04931263657545
C            7.01845394451085       -4.34172532605067       -1.96968842298832
C            5.85009147752230       -4.16086200427129       -2.71770144132335
C            5.08116836960045       -3.05153945755586       -2.54044097716733
C            5.44863410989954       -2.06629838436665       -1.59618066046327
C            4.67465831646429       -0.91089869811365       -1.38389160513801
C            2.03052654091721        0.01327146951883        0.14847061000452
C            2.60027053855918       -1.02599095788148        0.90395995937057
C            1.83605664931961       -2.05896239026926        1.37238690850671
C            0.47043562296595       -2.09536158434911        1.11812890742039
C           -0.13752199539457       -1.08992472989693        0.40590946401971
C            0.63471494854531       -0.01617553168688       -0.07976170650297
H            0.25544663560149        2.89500664977093       -1.74461146826417
H            2.69605541931962        2.96569649251483       -1.39808084787618
H            6.47253571001382        2.09550134447942       -1.30076066444458
H            7.53694202069665        4.27293892264667       -0.88492745384373
H            6.49293675898242        5.87343259198154        0.66099339763008
H            4.39009419753096        5.29439771623342        1.79210029984394
H            3.34070127765576        3.10675759433699        1.38561620354037
H            6.48057815847305        0.56446920238176        1.04427003867717
H            7.87847553306297       -1.41435068269303        0.70290320884664
H            8.29940855087159       -3.55424851286689       -0.47461817036477
H            7.61636975586906       -5.22501377525938       -2.12235057650997
H            5.55943226372728       -4.90722272395301       -3.43832010712236
H            4.18173766342244       -2.91346052208652       -3.11460522294414
H            3.77876805858612       -0.76203888032678       -1.95749172938958
H            3.65253441524504       -0.99850479880243        1.11770351309785
H            2.29212548674901       -2.85022251788318        1.94416251485004
H           -0.13813179903331       -2.90636893289059        1.48156927884786
