10
 energy: -1.656430781180 gnorm: 0.000295102644 xtb: 6.5.0 (97a52f5)
O            1.84666415959581        0.00160791050574        0.03499649839898
C            0.63577052979412        0.00000508365773        0.01158841823742
O           -0.12275962491238        1.13134967246744        0.11577721515195
C           -1.47573445205857        0.75520140674036        0.05175255245193
C           -1.47052608646833       -0.76138055778069       -0.10893499632426
O           -0.11490814310072       -1.13360839030598       -0.12097919066456
H           -1.92782055967816        1.28088772465923       -0.80066865182442
H           -1.95789535752571        1.09139586271427        0.98020809723587
H           -1.91585324217516       -1.09929731581027       -1.05497033906434
H           -1.95275722347090       -1.28862139684783        0.72582039640144
