86
 energy: -18.738882539475 gnorm: 0.000797436263 xtb: 6.5.0 (97a52f5)
O           -0.06446234613738       -2.62970294936176       -0.23600733518446
C           -0.04314513643250       -1.41701975320113       -0.18210069860416
C           -1.19732798849906       -0.50857792570256       -0.10988115569566
C           -2.54823936981930       -0.78862817116605       -0.10662162036248
C           -3.46786367056597        0.26026417885455       -0.04778937916325
C           -4.91878411281979       -0.01253945590031       -0.06308440456753
C           -5.80785729457946        0.85932603742385       -0.69576251162582
C           -7.15560960910584        0.60021999653190       -0.72083573316482
C           -7.67688176606558       -0.54122051969256       -0.11427807101029
N           -9.08052525654410       -0.81316178425955       -0.14984797905764
C           -9.86663541763018       -0.40093783810322       -1.27863971596813
C          -11.15623091847334        0.09479678652914       -1.10355548199317
C          -11.91124568349275        0.48613119779435       -2.18586890729284
C          -11.39372516502377        0.38925145840472       -3.46266972627014
C          -10.11716967263110       -0.10273408985052       -3.65323352992842
C           -9.36028937165687       -0.49496232184319       -2.57257626723188
C           -9.71612994494421       -1.50320273068781        0.93656024604126
C          -10.73648463134212       -2.41967533522389        0.69501010122574
C          -11.35414777827079       -3.07450226936696        1.73627518934361
C          -10.96519649706531       -2.82646275268723        3.03806513626804
C           -9.95564912401565       -1.91941627471668        3.29446483289912
C           -9.33703841209323       -1.26280156748831        2.25484151595974
C           -6.79282458687972       -1.41234307768919        0.52069721272512
C           -5.44433971063296       -1.15485451338157        0.54494153246234
C           -2.98635951968374        1.57985639228051        0.01432167348978
C           -1.63895419590133        1.86355680127150        0.00929753609267
C           -0.73249775454627        0.81268172883882       -0.05684473346074
C            0.72427355917246        0.78904296206870       -0.10277509203170
C            1.66642748465015        1.81014492039467       -0.10508093010527
C            3.00145443556109        1.48282929558307       -0.18668109639683
C            3.43649091683824        0.14780638933591       -0.26529920126962
C            4.87337999996673       -0.17080708920818       -0.38026170245826
C            5.84421134189719        0.64020841907060        0.21216958006880
C            7.18100112848323        0.35503633552247        0.08242088208562
C            7.60980474169435       -0.75512034849031       -0.64325006534056
N            9.00207174677921       -1.04373829653136       -0.79191550823118
C            9.93827995342472       -0.66752947580859        0.22986993336536
C           11.19945872801976       -0.18375187184261       -0.10935094380630
C           12.10248398088604        0.16985141773913        0.86735022524314
C           11.76422500817337        0.04586613215967        2.20059550479493
C           10.51850454124675       -0.43546461011610        2.55343562325517
C            9.61380012327751       -0.79020397834307        1.57853685741999
C            9.48307759259657       -1.71340352058171       -1.96779155484547
C           10.48729562089362       -2.67378211938105       -1.87525149720181
C           10.95387173225563       -3.31337243441477       -3.00114709949014
C           10.42783366242617       -3.00522318918898       -4.24039494338031
C            9.43400472420611       -2.05222613860050       -4.34955467019656
C            8.96614331255491       -1.41081154482570       -3.22508156349924
C            6.64338037518380       -1.57161564642824       -1.22840796170243
C            5.30660032968367       -1.28616559694460       -1.10124078464511
C            2.48097340958014       -0.87033172572223       -0.25657133405322
C            1.14204363063077       -0.54648148627595       -0.18009724038336
H           -2.87502808876808       -1.80963315689646       -0.17556470178989
H           -5.42229840889899        1.73520156410206       -1.18763527302320
H           -7.83082776761294        1.28347351972535       -1.20535206308337
H          -11.55035800324578        0.17490311036797       -0.10558876122749
H          -12.90721210902007        0.87003430276976       -2.03672547988355
H          -11.98568759493588        0.69575063735763       -4.30946918640599
H           -9.71414908875393       -0.18163929063668       -4.64962967877785
H           -8.37020807001282       -0.89141515555981       -2.71546633999638
H          -11.02957411231952       -2.61417779918628       -0.32183771410612
H          -12.14143657903392       -3.78258376351134        1.53549590581146
H          -11.44972128300024       -3.33918064965304        3.85279943179642
H           -9.65381601114658       -1.72361187557724        4.31035203315310
H           -8.55961937724665       -0.54485059450921        2.44946199253269
H           -7.18377870188948       -2.30231075991444        0.98169592854863
H           -4.77855488642277       -1.83272816285889        1.05003186291525
H           -3.69514169374959        2.38647781894466        0.08242514029163
H           -1.28166351035664        2.87720599556267        0.05421618327713
H            1.34496070041092        2.83544026625001       -0.05402919475195
H            3.73499661770838        2.26921513502705       -0.21717399306005
H            5.53425109935229        1.49258239976081        0.79102351057989
H            7.91821618718618        0.99757494720325        0.53075849961363
H           11.45393511178028       -0.08363201026538       -1.14999843940404
H           13.07444167273654        0.54496577204087        0.59136862943290
H           12.47203954756623        0.32240827589016        2.96477058209069
H           10.25587384868069       -0.53612658749337        3.59378534153922
H            8.64754209736740       -1.18005335977563        1.84715953356552
H           10.88740768120935       -2.91411733921298       -0.90578105350844
H           11.72937294274026       -4.05687370596743       -2.91541980276026
H           10.79335517854649       -3.50706670562488       -5.12129619224966
H            9.02562606231935       -1.80928810507859       -5.31683983415130
H            8.20168145970839       -0.65785269278494       -3.30531049403885
H            6.96221291557357       -2.43902440990970       -1.77927298578388
H            4.57799933756092       -1.91632449408728       -1.58055148331153
H            2.77010568074905       -1.90400117326594       -0.29892504696680
