66
 energy: -14.937635549488 gnorm: 0.000869251175 xtb: 6.5.0 (97a52f5)
O            1.58806200758479        2.34368980013027       -0.03711696972974
C            1.22710232547809        1.18511553236337       -0.06453835753318
C           -0.16114739427678        0.71862824720080       -0.05617674467879
C           -1.34655336797510        1.42360649948820       -0.01239707132712
C           -2.54755098007317        0.72804144047029       -0.01149115361309
N           -3.78618898397845        1.45192552896685        0.03786889992111
C           -4.23762809727320        2.36069992463365       -0.94139412238874
C           -3.60332854876353        2.86334095223264       -2.07620136362137
C           -4.30581537226155        3.69984014310271       -2.90732645522573
C           -5.63205900910772        4.04291806376905       -2.63118682428930
C           -6.27340512834659        3.55165476714671       -1.52006124807173
C           -5.57215702104480        2.70130280499614       -0.66483958778599
C           -5.95307290331510        1.99955532201779        0.53697431300510
C           -7.15050478998192        1.93490648423190        1.25010688891312
C           -7.20899444714603        1.14062659149462        2.36955629361622
C           -6.09400236461408        0.41426943711297        2.79506615603895
C           -4.90977701588170        0.46951808850577        2.10401295461171
C           -4.83724734652875        1.25726056973873        0.95710702120161
C           -2.54599320610912       -0.68943349575659       -0.06982025732120
N           -3.78384712141776       -1.41621080047248       -0.08678277027453
C           -4.86017012735763       -1.21645391457439       -0.97513783659916
C           -4.95986489288153       -0.43201554838934       -2.12228746196925
C           -6.16426720880540       -0.36681161641100       -2.77657671374114
C           -7.27302753875957       -1.07981743805610       -2.31374379566070
C           -7.18787818428608       -1.87149714958110       -1.19412967466934
C           -5.96943097085362       -1.94694803787051       -0.51859869850741
C           -5.55883109732746       -2.64702234415950        0.67445558300744
C           -6.24331438797643       -3.48241228760700        1.55758769152146
C           -5.57431867880688       -3.97161850215708        2.65322039798517
C           -4.23656781796834       -3.64156997877450        2.88634359442282
C           -3.55031482748789       -2.81956078425627        2.02763170918621
C           -4.21309253182123       -2.31850252984810        0.90849293726479
C           -1.34300810916163       -1.38088262150829       -0.10375932769698
C           -0.15921778717598       -0.67165864419082       -0.09737908170281
C            1.23046292703153       -1.13308855115557       -0.13283208470021
O            1.59475353717855       -2.29027914246497       -0.17153494803804
N            2.03336092609257        0.02759985755509       -0.11230015417623
C            3.45182473841137        0.03053632945676       -0.14510816668141
C            4.15940788229479        1.22487195037684       -0.12646960072209
C            5.53498905721364        1.22996009221384       -0.15917567506269
C            6.22778626394740        0.03685881599925       -0.21151640134861
C            5.53873003705292       -1.15941822658859       -0.23115654327273
C            4.16311994280582       -1.16056797740370       -0.19833902940724
H           -1.33465140608375        2.49651318396651        0.03514640708028
H           -2.58539539776186        2.58732475327817       -2.28547033547418
H           -3.82817195371389        4.09755421825011       -3.78747225150256
H           -6.15955524433863        4.70082437638763       -3.30176049166693
H           -7.29641455028380        3.80442909843150       -1.30488610345944
H           -8.00452874651057        2.49678874736179        0.91596239002357
H           -8.12762507758558        1.07665395820758        2.92879220856017
H           -6.16698896780660       -0.20365505979440        3.67470193828706
H           -4.04802912058247       -0.09129024508812        2.41764752428521
H           -4.10239595526369        0.11873226472918       -2.46435484773410
H           -6.25789457322467        0.24833574214922       -3.65620057393216
H           -8.20798722780205       -1.00766859184662       -2.84416903030568
H           -8.03734298339461       -2.42211569318379       -0.83089863108006
H           -7.27544282373528       -3.72428368411307        1.37605522035601
H           -6.08870606573130       -4.61749658792819        3.34532501609295
H           -3.73711939195729       -4.03736562500719        3.75517931666791
H           -2.52377786367843       -2.55275618753644        2.20429745242763
H           -1.32887275971035       -2.45377033194885       -0.15112512655178
H            3.60531074467457        2.14583783421401       -0.08544143565430
H            6.06955693661385        2.16555307769688       -0.14384678484641
H            7.30500810987283        0.03936994345155       -0.23746635632125
H            6.07666435607163       -2.09226406773424       -0.27287495712964
H            3.61232757561895       -2.08426877591410       -0.21514686898771
