65
 energy: -14.559531135466 gnorm: 0.000937747454 xtb: 6.5.0 (97a52f5)
O            1.86922739663733        0.04522668199717        0.07094321770383
C            3.08450502485310        0.05075125905342        0.05536148220353
C            3.80420962789702        1.30724909257429        0.34841628755601
C            3.04347569815255        2.42769485674070        0.63607662801991
C            3.63023008151405        3.65062691249074        0.92135747565771
N            2.81221617295801        4.79214724806313        1.21848760753612
C            2.88918503391337        6.05292632441618        0.59568143642002
C            3.71502465167406        6.51642582453621       -0.42715819696836
C            3.55975933893397        7.80775810444662       -0.86515943319592
C            2.59415567585012        8.64747340273836       -0.30423980210524
C            1.76827529389432        8.20419719830346        0.69979017380658
C            1.91229509118380        6.89349369919377        1.15502588942838
C            1.20837052705512        6.12684477404359        2.15534202276417
C            0.15580341473741        6.44265287223238        3.01521952269487
C           -0.30582345943356        5.47531639044177        3.87383308003516
C            0.26212311948561        4.19892762725793        3.89184484469413
C            1.29748540464224        3.87298433613905        3.05179491553462
C            1.77636275190526        4.84226185442112        2.17208084935763
C            5.01582594086939        3.74618865247419        0.91697443392408
C            5.78317485807391        2.63725525433925        0.63276698212636
C            5.18800328576906        1.43131171776579        0.35116620593431
S            6.28941225631150        0.06926400399252       -0.00250243959437
O            6.98853348549240        0.38372496723936       -1.30579217864846
O            7.05277204084151       -0.23556632304609        1.26660505556796
C            5.19202025280581       -1.30830201185278       -0.30422637933964
C            5.79084718236899       -2.51012315095631       -0.59511257978901
C            5.02675509374814       -3.63006359057936       -0.84273257447214
C            3.64086626758423       -3.54974200408962       -0.80048782643075
N            2.82637582694129       -4.70374970185821       -1.05665562348535
C            2.93269703327644       -5.95283880180593       -0.41506951406223
C            3.78958669664293       -6.38981233077963        0.59367175370724
C            3.65943368628857       -7.67490367356980        1.05750391489898
C            2.68880824801522       -8.53414385217401        0.53605219216253
C            1.83280026632871       -8.11700686020932       -0.45383990621508
C            1.95104727631537       -6.81297864004908       -0.93499676936703
C            1.21310176940353       -6.07062293039297       -1.92920795445474
C            0.14177908230895       -6.41114431752298       -2.75584604775736
C           -0.35346480821120       -5.46208295391727       -3.61639762098159
C            0.19912493162990       -4.18000072624194       -3.66856862718754
C            1.25326035771167       -3.83003682330545       -2.86208518747906
C            1.76616060720642       -4.78048461598953       -1.98114409501023
C            3.05030895423451       -2.33099111503766       -0.50531774554768
C            3.80781828772459       -1.19968513185292       -0.25409418754244
H            1.97232158585315        2.33960044380919        0.62349603084777
H            4.44679078649612        5.85990857611824       -0.86208623586804
H            4.18992137166062        8.17968398661230       -1.65611528992738
H            2.49479821525287        9.65659926477570       -0.66796504334908
H            1.01835993280549        8.84281535795069        1.13161544584028
H           -0.27504094536203        7.42795285329014        2.99678890926959
H           -1.11717229879473        5.70311679099854        4.54499081542087
H           -0.11910252125444        3.45926661887928        4.57643827568364
H            1.74217833023148        2.89443095242316        3.06308954164447
H            5.47740966080248        4.68883814924109        1.15261207236399
H            6.85986656042069        2.70067833872427        0.62950803508427
H            6.86767149409738       -2.56161715438437       -0.62829430692560
H            5.49044507158303       -4.57017735748962       -1.08429685648152
H            4.52510166176504       -5.71811918335271        0.99807669818628
H            4.31376886906408       -8.02645674567468        1.83806359597305
H            2.60982001851346       -9.53788851556690        0.91917819798540
H            1.07901639634326       -8.77071799521261       -0.85532714587657
H           -0.27824230675619       -7.40015784370148       -2.70961212020355
H           -1.17962889095116       -5.70888303083951       -4.26225028831778
H           -0.20910288292487       -3.45483632039427       -4.35307451268067
H            1.68611307250124       -2.84688291126625       -2.89943260534198
H            1.97923709307604       -2.25460777460729       -0.45723449544607
