89
 energy: -19.254152760355 gnorm: 0.000690663889 xtb: 6.5.0 (97a52f5)
O            1.01849627678061       -0.02619034291018        0.31195777007710
C            2.23256597362397        0.04654107569743        0.24818128477648
C            2.87269939529426        1.37498490209804        0.17924988097257
C            2.05313757168812        2.49766019004730        0.13831075368777
C            2.58070431640244        3.76484295277761        0.06780087343260
C            3.96185065807234        3.96476072352094        0.04035760157595
C            4.54700364058813        5.31535881371417       -0.04218438300936
C            3.88121695450969        6.42794083827201        0.47722435553402
C            4.43205457178314        7.68284142227321        0.39926229848987
C            5.67567829598952        7.88361626559449       -0.19717844311670
N            6.24917169531839        9.19009883191617       -0.28136721362523
C            5.96168474011145       10.17623254286030        0.72174998645345
C            5.88308742273535        9.82567606757649        2.06689950875599
C            5.61334887002646       10.77613173048460        3.02486092810164
C            5.41863929705320       12.09310361224153        2.65822224214389
C            5.49636027844884       12.45698846758281        1.32853890863846
C            5.76640162368993       11.50873355947851        0.36860134529502
C            7.12549842847758        9.52891616561679       -1.36708703196737
C            6.86966502876312        9.07877884765353       -2.65961581751462
C            7.71502560676206        9.40278456590984       -3.69594797233774
C            8.82887339048701       10.18456891872672       -3.46232139487800
C            9.09364349730609       10.64284720901891       -2.18704250087846
C            8.25040073538974       10.31964387488718       -1.14870305933546
C            6.34446408137652        6.77546263515301       -0.71332394576761
C            5.79216636707866        5.52154052781055       -0.64089736520918
C            4.77855488136028        2.83223795829876        0.08600789688942
C            4.24800341753367        1.57255505098417        0.14894717499402
S            5.43606306428016        0.24076981358416        0.18858860444294
O            6.19516167410569        0.27288759713431       -1.11972637249667
O            6.15307894110307        0.29946404109840        1.51921669721598
C            4.41822919080606       -1.22588905544086        0.18925767286821
C            5.09718912574690       -2.41315989627847        0.14845380539269
C            4.42415962035268       -3.63731856178451        0.15467475668999
C            5.16936141079042       -4.90829960978941        0.10471045549648
C            6.46141921594475       -5.00309822420058        0.62696375129165
C            7.16885848348890       -6.17660336606758        0.55805120403224
C            6.61697153171447       -7.31206923329427       -0.03184955386935
N            7.36371471685744       -8.52772017609257       -0.11746852070219
C            8.36152271219981       -8.83358499506722        0.86916520121946
C            8.13025049989225       -8.58496356097766        2.21937554701875
C            9.09152116605040       -8.87458910330610        3.16053991884448
C           10.29971222817013       -9.41855257414639        2.77175256231136
C           10.54282197989030       -9.67391679022051        1.43683914909920
C            9.58329838298765       -9.38565544136494        0.49357785329638
C            7.15916833397554       -9.43441436966430       -1.21139439502007
C            6.91629571226768       -8.96123739855432       -2.49820460166191
C            6.72938846242435       -9.83572966777855       -3.54415043214283
C            6.78500246553981      -11.19804370951299       -3.32618120570516
C            7.02969084228842      -11.68298009471299       -2.05681173622945
C            7.21580289884145      -10.81064499532975       -1.00894864587915
C            5.32373806812041       -7.22497146504193       -0.54415970149250
C            4.61702655034813       -6.05000266418657       -0.48019487765231
C            3.02966780053292       -3.60630887299906        0.20551474358187
C            2.35238325131192       -2.41081030950237        0.23923341323606
C            3.02931815811763       -1.19606004096718        0.22809393376231
H            0.98698818365590        2.34641202527365        0.15820248192587
H            1.92267962478098        4.61381621068321        0.01146146413621
H            2.93001633163217        6.29318299862303        0.96126158278533
H            3.90161532228889        8.53299958798529        0.79099938043457
H            6.04860461187296        8.80020901784746        2.34731971473525
H            5.55589200574955       10.49231502696496        4.06278862797761
H            5.20735064493795       12.83638914619872        3.40919262452729
H            5.34405330217011       13.48442860322234        1.04164398784045
H            5.82133238091578       11.78379711452369       -0.67002274798852
H            5.99408600723274        8.47940492992474       -2.83752750558434
H            7.50720606588241        9.04605468702253       -4.69130676595476
H            9.49076149292323       10.43645236927296       -4.27442913393763
H            9.96308171269882       11.25247257064186       -2.00407502368516
H            8.45589821422813       10.66531930402356       -0.15088461824524
H            7.31163307312069        6.91581021207762       -1.16330002142523
H            6.31639370314035        4.68454670940354       -1.06754251715941
H            5.84997104683849        2.93932268970273        0.08564094916654
H            6.17225108307200       -2.38912806858206        0.09269689492678
H            6.90151576018537       -4.14401931612740        1.10207503423811
H            8.17036619413727       -6.22867796935485        0.94765597828609
H            7.18319002723613       -8.16958831966136        2.51626281172150
H            8.90086305429861       -8.67666316301569        4.20242052127049
H           11.05222742330385       -9.64335639850474        3.50948411414075
H           11.48630494618508      -10.09638522147785        1.13261101636662
H            9.76972705134131       -9.57252191733864       -0.54931462514074
H            6.88950172466966       -7.89875565776632       -2.66511256234355
H            6.54163894135801       -9.45674357168846       -4.53524648976282
H            6.63910461590835      -11.88185565985223       -4.14600759930128
H            7.07431098154597      -12.74598506522203       -1.88624442066564
H            7.40052308503615      -11.18163335628289       -0.01617008556675
H            4.88183153219614       -8.09949808891953       -0.98846987154416
H            3.63056608301387       -5.99788943714695       -0.90605168776646
H            2.48146988618432       -4.53125578731781        0.23590460422580
H            1.27622038146272       -2.38969088795772        0.27623097825751
