160
 energy: -33.367564290223 gnorm: 0.000166053970 xtb: 6.5.0 (97a52f5)
O            5.44920786546122        2.19274881599383        0.69660434978849
C            4.83625688281713        1.19618198055959        0.35155508438626
C            3.37325947671949        1.17720196194692        0.35740320044151
C            2.66380199355904        2.29128045503060        0.74796161739844
C            1.28516708838603        2.30204351890037        0.71464916917928
C            0.54617058765134        1.20058535576071        0.28164057209892
C           -0.90106140265595        1.22700311464385        0.11740354324566
C           -1.64937159253263        2.43197395138180        0.06384274853493
C           -1.03079684507309        3.76907802128100       -0.08626574387533
C           -1.28322245915598        4.77801687544636        0.84491217947314
C           -0.67827647783366        6.00329659408304        0.73057120926000
C            0.20412638919580        6.27682770461027       -0.31877094507823
C            0.88766024897717        7.58170209475561       -0.42081954644551
C            1.41608022831808        8.19996705461610        0.70443035328433
C            1.81789931519307        9.62269111896603        0.68708583314050
C            2.98048890781858       10.03989011797291        1.33664804265925
C            3.35223078504211       11.36536727956137        1.33624889648401
C            2.57035996233232       12.30434373320747        0.69376003432945
C            1.41094168898359       11.91409265269051        0.05444067495820
C            1.03527705781722       10.59005447099734        0.05377650498561
C            1.59662304452172        7.45192020860465        1.96892367331397
C            1.24114685121587        8.02446772446915        3.19088174114146
C            1.39968856589931        7.32845230024012        4.36789463628794
C            1.92184197597745        6.05044298718906        4.35282545709120
C            2.29139638879569        5.47073831213587        3.15594705749250
C            2.13560972655844        6.16347337924788        1.97701736272650
C            0.99850794847538        8.19506151144576       -1.76273370624004
C            2.18733702178454        8.78598444021264       -2.19337425786034
C            2.28427356603778        9.34316819920630       -3.44824044309164
C            1.20126810631785        9.31537725694815       -4.30357322534040
C            0.02013571520433        8.72516254437848       -3.90085108924270
C           -0.08122990517445        8.16839411352414       -2.64590245417929
C            0.41821082397113        5.28149400810120       -1.27559824438916
C           -0.18636065783996        4.05500445213226       -1.16258325354043
C           -3.04550276571358        2.37641868796699        0.07776631723520
C           -3.73004067641835        1.18998660013232        0.08213392747147
C           -3.01459109564493       -0.02701475493933        0.03481041253951
C           -3.71739616602997       -1.25194698292574        0.00338201393217
C           -3.01816993835441       -2.42978912015136       -0.01429606774852
C           -1.62139479599058       -2.46895063370202       -0.03489927422421
C           -0.98417688190126       -3.80073577396086        0.08822247920429
C           -1.21616920090042       -4.79236107687370       -0.86687374239740
C           -0.59115610155114       -6.00986016017833       -0.77811728821191
C            0.28958720922974       -6.29322950806952        0.26998167071360
C            0.99012174379803       -7.59079532950523        0.35077580916279
C            1.54625570320393       -8.17473935102121       -0.77894312440443
C            1.98154492358245       -9.58791897615792       -0.78288319998070
C            3.16881882169576       -9.96204758167231       -1.41386616328061
C            3.57328005363743      -11.27770199628890       -1.43394874876464
C            2.80026404327509      -12.24958117440628       -0.83093055817306
C            1.61717125553904      -11.90206698159718       -0.21052727587335
C            1.20880593535490      -10.58788058114772       -0.18937096291901
C            1.72889140069444       -7.40014532619712       -2.02695729219888
C            1.40734840410289       -7.96108255320684       -3.26366193850884
C            1.57634558009981       -7.24593610835670       -4.42761480332928
C            2.07571525385290       -5.95959370265393       -4.38448258780054
C            2.41098111321076       -5.39059027157883       -3.17253606709905
C            2.24399236312359       -6.10218422928542       -2.00631885244202
C            1.08532655450041       -8.23586593928280        1.67917979160144
C            2.27680439842521       -8.81238960175888        2.12179374268630
C            2.35714927014531       -9.40113395941640        3.36337251286438
C            1.25436902348359       -9.42002405839419        4.19334122877868
C            0.07007960006977       -8.84446061918080        3.77887650450000
C           -0.01462461840975       -8.25594908587551        2.53725827013250
C            0.48389841135185       -5.31610830939616        1.24960573594566
C           -0.13852305605420       -4.09661156226623        1.16078707498690
C           -0.88780400097146       -1.25534260196281       -0.09702545902699
C            0.55610710503030       -1.21039489499802       -0.28740743841454
C            1.30199320175872       -2.30272703210217       -0.73133232044355
C            2.67908704480105       -2.27139335911196       -0.79641850753343
C            3.38048948773078       -1.14521806566266       -0.42770376600463
C            2.67295270558227        0.01076069625326       -0.02681348974940
C            1.25308321907100       -0.00001776688872       -0.01058319431389
C            4.84226194457049       -1.13913133907953       -0.46479429125235
O            5.46640796015758       -2.12225459793380       -0.82817696262084
N            5.49870056183227        0.03323712519388       -0.06742090813937
C            6.96369432458509        0.03032524195993       -0.10177325324176
C            7.49400048078880        1.08263480757131       -1.09174550375328
C            9.03209718175258        1.10365483603996       -1.12074037188673
C            9.60692925012708        1.33100456380064        0.29033298958361
C            9.08790322506918        0.26742299221761        1.27661247599567
C            7.54974405306587        0.24642993835581        1.30476299318227
C           -1.59491433266385       -0.01865815656479        0.01851300568987
C           -5.18216381680355       -1.27389558488053        0.02518724280325
O           -5.78956928189088       -2.33068771176809        0.00408472057583
N           -5.84939610492293       -0.04256198069273        0.07166588901999
C           -7.31408705655981       -0.03242349558603        0.09377179695921
C           -7.88914861331264       -0.66702196358699       -1.18480011442678
C           -9.42733389293554       -0.68313129586226       -1.16220767692214
C           -9.95267125380381       -1.39863585301890        0.09694473468581
C           -9.38870588849648       -0.75167066327985        1.37627793278938
C           -7.85055822704804       -0.73593569636273        1.35288957264869
C           -5.19407988731301        1.19421567042694        0.09840673507486
O           -5.81800340671469        2.24105775262212        0.13367547293094
H            3.21361266365191        3.16275775210389        1.05892966965715
H            0.77195119991546        3.18678798792793        1.04083773309412
H           -1.94407928665259        4.57285816709640        1.66932610551729
H           -0.87234639387597        6.77009775798206        1.46018633035395
H            3.58903665949351        9.30610840965196        1.83630893530374
H            4.25521133394628       11.67078130410541        1.83892151401091
H            2.86332417320299       13.34146483932602        0.69351565410843
H            0.79842396599070       12.64706224569739       -0.44451177888644
H            0.12755519720250       10.28613749791966       -0.43790399623702
H            0.82967555861756        9.01901292596255        3.19928836772281
H            1.11386199522295        7.78155402878859        5.30297513327999
H            2.04293474168629        5.50653691349722        5.27526880146376
H            2.70308111188705        4.47509432955314        3.14553051530503
H            2.42711534006565        5.71530971965955        1.04309467249035
H            3.03295655432461        8.80061444682314       -1.52787152082427
H            3.20753837128439        9.80106947904945       -3.76330443966246
H            1.27871401423681        9.75150196398434       -5.28602682679758
H           -0.82392607287473        8.69931994698211       -4.57035420935567
H           -1.00110527959956        7.70776661886921       -2.32939008160091
H            1.08466860337706        5.48352692518489       -2.09607798326691
H           -0.00128042688146        3.28782466613687       -1.89448092562702
H           -3.61107793145254        3.29118453668405        0.06048862919565
H           -3.57148203387224       -3.35175171119006        0.01175914183569
H           -1.87708940680293       -4.57900862165762       -1.68914668908127
H           -0.76880588239411       -6.76291402001771       -1.52601937550204
H            3.77041962593362       -9.20251707136162       -1.88253416182911
H            4.49498012044314      -11.54955724437078       -1.92170755513050
H            3.11877844527368      -13.27901861725950       -0.84676493543230
H            1.01178893835249      -12.66082175989752        0.25762585999044
H            0.28299298103907      -10.31710644126391        0.28772450780457
H            1.01589562584992       -8.96324939824536       -3.29420131695992
H            1.31809492751543       -7.69113611822701       -5.37443839526057
H            2.20690074753447       -5.40114692499273       -5.29680433240963
H            2.80696481286738       -4.38915397827544       -3.14133597851190
H            2.51101391697467       -5.66316702974626       -1.06083684271565
H            3.13748772798726       -8.79095781586054        1.47607718489322
H            3.28282730567076       -9.84742900415817        3.68784850550162
H            1.31874711420414       -9.88120444692910        5.16524353879247
H           -0.78960639814268       -8.85527418785315        4.42863410481186
H           -0.93692062868030       -7.80681325238602        2.21141507960859
H            1.14922187721985       -5.52650135359103        2.06891762037467
H            0.03231834359510       -3.34266071666016        1.90968726831075
H            0.79589684475887       -3.19624777579396       -1.04363913532190
H            3.23544791706713       -3.13526397709947       -1.11639478819216
H            7.26538114431997       -0.96759770243900       -0.45700456276752
H            7.11025018186556        2.06172253939425       -0.78457493349888
H            7.07362360400412        0.90084542604887       -2.08870399858160
H            9.39736783566626        1.86889854236376       -1.81924791012601
H            9.39987729619303        0.14802327993231       -1.51350122342731
H            9.31180136000290        2.32624224602684        0.64432697927938
H           10.70531408496595        1.34018424074841        0.26794725784632
H            9.49284954921806        0.43792587361611        2.28352110768176
H            9.45795359798344       -0.71978365532877        0.97456141865499
H            7.16764391698286        1.19844641546723        1.68931312583878
H            7.16863381723570       -0.52198557499097        1.98884084648315
H           -7.61813613922060        1.02570004497834        0.12708021451342
H           -7.50314442249064       -1.68963651252985       -1.25961912307333
H           -7.50340729065993       -0.14114761344102       -2.06708456446011
H           -9.82455897714335       -1.15254962908534       -2.07258740980280
H           -9.80034109123657        0.34809868208261       -1.17672684404207
H           -9.65367042729538       -2.45334143226727        0.06394029369261
H          -11.05115533707623       -1.40424997130794        0.11352420284954
H           -9.75865712577034       -1.26953331331191        2.27176133665574
H           -9.75995804731088        0.27709908812297        1.45749209009704
H           -7.46347523003517       -1.76086166125244        1.36014341229262
H           -7.43758193631307       -0.25860016296505        2.25031579814654
