160
 energy: -27.644222780331 gnorm: 0.001959078355 xtb: 6.5.0 (97a52f5)
O            5.75548379019220        2.12272116015573        1.14864076537184
C            5.23266190038879        1.18572504198017        0.56845730988745
C            3.78026846041345        1.10908756764960        0.42338963631835
C            2.97883263891840        2.10355055946320        0.94703258726211
C            1.60543352964745        2.04316344201977        0.82432053887704
C            0.99291991818835        0.97843566299963        0.16432892400492
C           -0.46096800889400        0.84691442325493        0.05415719417664
C           -1.34719398460999        1.94646368686034       -0.01765022453696
C           -0.86475430591594        3.34055878356419       -0.12393366835086
C           -1.25947514878594        4.30702824740187        0.80292508718210
C           -0.73834727510987        5.57526207846797        0.75656267387638
C            0.19654699573143        5.93402105867523       -0.21932954077278
C            0.81236719323990        7.27642211908546       -0.23706062760267
C            1.27389247572891        7.86524706114314        0.93141149521578
C            1.64933393159967        9.29454017831997        0.97908314111914
C            2.78825548701312        9.70381512641516        1.67420158553736
C            3.14039364546728       11.03325513819963        1.73183662100184
C            2.36158855051074       11.98402384815204        1.10314914773766
C            1.22521882857194       11.60129071145015        0.41930525688685
C            0.86917017091636       10.27308547880198        0.36018917852717
C            1.41989679146597        7.07886907347315        2.17724385251242
C            1.00516553307207        7.60710458772386        3.40059654919833
C            1.13852295472972        6.88276475649708        4.56351722594527
C            1.69384272482210        5.61931742670967        4.53333052931726
C            2.12164877218642        5.08323468428830        3.33576023789106
C            1.99170066286387        5.80458603883268        2.17077420019440
C            0.94645398952623        7.94852625432536       -1.54881989996386
C            2.13031727936541        8.58775527839023       -1.91981096440466
C            2.24855585283328        9.19518938434403       -3.14933637007409
C            1.19267034625289        9.17078494636274       -4.03809331082161
C            0.01761811931988        8.53293721270462       -3.69479107642960
C           -0.10491844576996        7.92520684196320       -2.46566278166784
C            0.54716848106562        4.98142767399139       -1.17904574366403
C            0.03013275258839        3.71195684429843       -1.13065375395401
C           -2.72315669545375        1.69213197641413       -0.05938545990083
C           -3.23193006307283        0.41359591462476       -0.04755370305711
C           -2.35020976148174       -0.69306235439957        0.03356523674853
C           -2.85908413064200       -2.02516779056748        0.04744534841599
C           -2.10492815332280       -3.16723236654346        0.27726442172654
C           -0.86025236297555       -3.29272856678281        0.82173370134429
C           -0.12345999540584       -2.44299273824971        1.60818313450477
C            1.17647101503246       -2.49578225852213        1.86658857559111
C            2.11140151427618       -3.29713580676538        1.32889750436544
C            1.86990758142782       -4.18566959584783        0.33435475474618
C            2.76865058547756       -5.04319366248430       -0.24043731564766
C            2.65279653505583       -5.64894573362683       -1.38691623392142
C            1.61977276014072       -5.58447384770277       -2.29907783005940
C            0.31798792763698       -5.77234525194399       -2.11113755551229
C           -0.29941312354619       -6.13733255556326       -1.00488204350455
C           -1.59758342862148       -6.34565589715286       -0.86399237249478
C           -2.21419481822536       -6.70873513811183        0.24917452167034
C           -3.47114593694546       -6.91044500294242        0.39992186999366
C           -4.70613960598960      -10.27668990298920       -0.03861283189191
C           -5.80415626752143      -10.46830566572054       -0.68285364414553
C           -6.65236094195831       -9.55477673628876       -1.07752894826822
C           -0.45013250777927       -5.80595590297762        3.16660677884576
C            0.66750884577060       -6.25278822532250        2.71744315051283
C            0.85700850065069       -7.32447438309630        2.04099025572347
C            3.65445846820609       -7.07196793463625        4.92664243450485
C            2.75588261551895       -6.44630828716006        5.60599742744848
C            2.42831917905452       -6.64864443487977        6.82804983473140
C           -7.61699312680097       -6.02380100629741        0.87901397216434
C           -6.84899707301570       -5.98119414666741       -0.15049953708235
C           -7.19386259417441       -6.06172754114244       -1.38256760809227
C           -4.05170127179140       -7.97420182585638       -2.92389480734481
C           -4.52570993503914       -6.96113986130631       -3.51923743622951
C           -0.64664056917030       -9.55059633087908       -2.45020573008174
C           -2.28369230957843       -3.87026554916214       -3.69895939321394
C           -3.43396546962912       -3.42667619139857       -3.37422902603184
C            3.45362289905363       -2.01696499106353       -1.52037859390732
C            3.98593909178135       -1.00192942476752       -0.82655628585807
C            3.18086911513813        0.01747098237538       -0.25435165590059
C            1.81083113691044       -0.00941562775454       -0.34547588878588
C            5.44126875256816       -0.94501841137348       -0.66853991951733
O            6.15460355950409       -1.82254607530865       -1.12568162663442
N            5.99154987333937        0.14377262610411        0.02009725609199
C            7.44881537001080        0.18069204228142        0.16857123631946
C            8.04272806358098        1.41470993919622       -0.53379191775813
C            9.57005664971283        1.48052448080384       -0.36156767269528
C            9.95856084499433        1.44980083356087        1.12882778645867
C            9.37904072042566        0.20390972761195        1.82529785075967
C            7.85170747970625        0.13783889143825        1.65339481049018
C           -1.00763634095631       -0.41736219343534        0.04511423415797
C           -4.28689234030322       -2.23159918564561       -0.24539102013056
O           -4.72080588861363       -3.35517293756255       -0.43361445897767
N           -5.12825490497559       -1.11195146209134       -0.28833682423415
C           -6.56496206022739       -1.30475094540221       -0.50462172291937
C           -6.85068131900299       -1.93528401783197       -1.87748066780952
C           -8.36341239178427       -2.09414227395590       -2.11136623273977
C           -9.01744177962006       -2.91183469765160       -0.98042434357974
C           -8.71692536680981       -2.29958111928889        0.40183498680759
C           -7.20214883714232       -2.13737828343907        0.62035013430209
C           -4.67490187509543        0.20458726566169       -0.15433819335903
O           -5.44933813807961        1.14614724076816       -0.14416232270136
H            3.45251002709434        2.92640893080746        1.45332881926845
H            0.99717737435788        2.81459188168099        1.26076473119850
H           -1.95614969338310        4.03315725112999        1.57626980510874
H           -1.03383468657440        6.30755959669459        1.48767124663214
H            3.39493908667282        8.96046107751303        2.16191384838334
H            4.02565403025613       11.33244510052307        2.26863312936632
H            2.63915473061149       13.02438922864032        1.14829936613339
H            0.61549960568854       12.34367387177258       -0.06902470670492
H           -0.02010271966872        9.97446367723445       -0.16716438465111
H            0.57003703572360        8.59133822727599        3.42117774821515
H            0.80814416465539        7.30266714548111        5.49940707045429
H            1.79605285712300        5.05298000596588        5.44451664699296
H            2.55920155797705        4.09911696086839        3.31555718188139
H            2.33024739080079        5.39026886771060        1.23713607415120
H            2.95522825939706        8.59889676350954       -1.22875965425623
H            3.16753899197937        9.68943342968527       -3.41864052562969
H            1.28696151709191        9.64628049773907       -5.00061791561334
H           -0.80495734138088        8.50962255303233       -4.39063809096858
H           -1.01953278876783        7.42608371307975       -2.19565079587823
H            1.25553172827461        5.24968722566090       -1.94358018175159
H            0.32880886577154        2.97587267537386       -1.85697609486411
H           -3.41062387853739        2.51547190248343       -0.13493120554964
H           -2.59937704141007       -4.09557356252951        0.04163764608571
H           -4.60496019944483       -5.24517441410173       -1.29179639359129
H            3.12184967634453       -3.20807019993287        1.69102708123654
H            1.83714038942873       -4.05502228531521        4.30598903565229
H            0.74949235080690       -8.44508682069512        4.81186673586696
H           -8.00979096744857       -9.68510621950991        1.56397832455516
H           -5.72443381800488      -13.42744586337355       -0.90278952901308
H           -3.18362811223529      -10.92434064201639       -2.35772788128407
H            1.52841206159025       -8.29067011965057       -0.65617618159573
H           -6.51654799446034       -8.52847968539695       -0.89842815230237
H            4.38539314974298       -8.87381256392158        7.45566396661016
H            5.22465794986638       -5.04559460500298        6.63227150934559
H           -4.42167564633767       -0.84983766093497        2.34185252458332
H           -4.72998182962088       -4.54649976887493        1.40881818247001
H           -5.57362025976173       -8.10200382118251        1.81924271444515
H           -5.46529016002604      -10.50716905915066       -3.80740987422037
H           -1.36591733431603       -6.86994074366109       -3.88735678021195
H           -2.61507772737627       -9.76653196610684       -4.89878414565680
H            0.40778157701534       -2.53642098800279       -1.54540523812282
H           -4.01424232614950       -6.04575647124506       -3.58588210929669
H           -3.75568391841691       -3.35206452482348       -2.37809672713112
H            4.04910802206461       -2.77401867532405       -1.93814080027581
H            7.83595157877593       -0.72421141072846       -0.32595374120855
H            7.57684647070903        2.30775560477500       -0.10283337373606
H            7.75517466093973        1.41418918730389       -1.59260444297476
H            9.97844992360101        2.37401522088208       -0.85332568138781
H           10.02936341088370        0.62703130295444       -0.87472495359241
H            9.57267328207632        2.35077821120058        1.62100285382285
H           11.04970430885959        1.49276292036521        1.24926927873659
H            9.65124906489202        0.18926098839403        2.88954310150399
H            9.83125302173305       -0.69728616980714        1.39393029456582
H            7.37925616689085        0.98776220617844        2.15810042247175
H            7.43035219783332       -0.75750931395214        2.12731540178134
H           -7.01562918173021       -0.29960589170971       -0.48590179566490
H           -6.36128739698244       -2.91457588509573       -1.91197744253036
H           -6.37809689491894       -1.33903669288071       -2.66793351035353
H           -8.55775402197700       -2.55611971282902       -3.08895258296877
H           -8.82863152305359       -1.10213571102866       -2.15812804968757
H           -8.63777977457206       -3.93917785168037       -1.01093278286839
H          -10.10124931148483       -2.99618138896655       -1.13943229939477
H           -9.15971270838862       -2.90940378262322        1.20124330302958
H           -9.20150323994938       -1.31876483890917        0.47836492409824
H           -6.71803926778035       -3.11959306642742        0.63321917153425
H           -6.97953699150254       -1.68319400412880        1.59368973914324
