162
 energy: -33.733035281857 gnorm: 0.000183101006 xtb: 6.5.0 (97a52f5)
O            5.46107057659426        2.51449092280361        2.47252213235512
C            4.90793244172220        1.45887002131293        2.21530332963023
C            3.44926226370875        1.34474540510501        2.25583617047300
C            2.66031258944718        2.43682108758685        2.57852200789861
C            1.28573478687790        2.36010414743763        2.53543381317601
C            0.63353393028694        1.17870742021767        2.17814747498080
C           -0.79301739430298        1.10940874585943        1.92237729770147
C           -1.58555174880278        2.23268615671299        1.54736307903225
O           -1.06582101633011        3.46564956435208        1.12427838655103
C            0.06332919426570        3.47994246181899        0.29448886368056
C            0.88112220530199        4.61256634124936        0.26942013479718
C            2.11110928036517        4.57590957401831       -0.33350348719748
C            2.60074047333780        3.40745513913823       -0.93390345232374
C            3.98606637623488        3.22165144329313       -1.39961978245157
C            5.03305532610484        4.10204020288879       -1.13749166736899
C            6.41272951826120        3.87462457625759       -1.62239922986280
C            7.48961419174508        4.37088213586172       -0.88219054153921
C            8.78698523761839        4.22041013804550       -1.31483699056171
C            9.04790084202641        3.56891829791098       -2.50230321845558
C            8.00270133225635        3.07996476950831       -3.25853149603470
C            6.70427201186641        3.23673661148546       -2.82946314510427
C            4.86196007791004        5.29639630330656       -0.26617756103831
C            4.74376874366807        6.57528600775980       -0.81526895573105
C            4.58811774529022        7.67482902995790       -0.00226939673116
C            4.56430518040900        7.52534412864519        1.37036794839019
C            4.70741397788756        6.27217829930056        1.93137087167251
C            4.86066933128501        5.16968470085145        1.12398471622019
C            4.26806586778669        1.89880623386874       -2.02414396841851
C            4.79837736088645        0.86576129867267       -1.25410473451206
C            4.99559141055690       -0.38668583587503       -1.78598985100787
C            4.66408735007422       -0.63670819085418       -3.10158899414345
C            4.12016415066520        0.36810571447456       -3.87803644489589
C            3.91235611770525        1.62105647603600       -3.34576165679957
C            1.70697111146613        2.32986419367905       -1.02897260282476
C            0.46498900036199        2.36983331484694       -0.45447170294409
C           -2.98183277203398        2.09145873131650        1.51145352407029
C           -3.60441922679621        0.89017834161259        1.73025968605400
C           -2.82791863265269       -0.27146376777380        1.96948020199717
C           -3.44163081299846       -1.52740896952490        2.15189574737864
C           -2.64942958711805       -2.64611156659085        2.35205385512152
C           -1.27547572075542       -2.56441264869086        2.29986148323682
C           -0.62717504166010       -1.35225372417465        2.05675782581340
C            0.79611770007079       -1.25635018458497        1.79191869905972
C            1.58296075640835       -2.33510129985715        1.29426777139681
O            1.05636807935448       -3.51793383176667        0.75299689118850
C           -0.08246078103522       -3.44595492370888       -0.06045440823618
C           -0.90303902202021       -4.56912381120207       -0.19241158072560
C           -2.13976249172216       -4.46934664918522       -0.77410339396688
C           -2.63363662210552       -3.24479830207202       -1.24536537757621
C           -4.02340866125565       -3.01086441372326       -1.67463458481713
C           -5.06889525601256       -3.91356304817530       -1.49544564402718
C           -6.45224668199280       -3.63800703922694       -1.94343904588503
C           -7.52337483427952       -4.21049355226092       -1.25149004962289
C           -8.82400245303419       -4.01712195815774       -1.65647032619988
C           -9.09409847657836       -3.24485498454237       -2.76697662547667
C           -8.05478997263404       -2.67801540924570       -3.47542398442319
C           -6.75313942364655       -2.87743608488047       -3.07477729634511
C           -4.89142740989023       -5.19104629089394       -0.75288549415074
C           -4.78328511630347       -6.40722994238784       -1.43127496989658
C           -4.62251858130867       -7.58459886865130       -0.73690622324987
C           -4.58344931019932       -7.57655180379584        0.64347197242463
C           -4.71627694373910       -6.38710906716131        1.33136142109943
C           -4.87456695551752       -5.20738803474403        0.64283172373095
C           -4.30985149477587       -1.63012382170991       -2.15525089534924
C           -4.83299561926747       -0.68322548592387       -1.27712197394514
C           -5.03411421112520        0.61776455968940       -1.67386079505113
C           -4.71377513149010        1.00376150403531       -2.95900880271177
C           -4.17700441053322        0.08562413107532       -3.84062928732677
C           -3.96531398291632       -1.21591671850008       -3.44370475179776
C           -1.73876012882210       -2.16399725412276       -1.23908784825867
C           -0.49035547373435       -2.26420875210292       -0.68633335939127
C            2.97882535577481       -2.19049401688436        1.25618073827247
C            3.60494871572208       -1.01749821639103        1.58889057988046
C            2.83238777142061        0.11349380327546        1.95447678089055
C            1.42014551598924        0.00560261180070        1.98972041045778
C            5.05870179153602       -0.90096263153832        1.48335031912780
O            5.73473708818081       -1.82690610321381        1.06668165156209
N            5.64198839237861        0.32032372648956        1.84723853140358
C            7.10784625608409        0.38182072066061        1.85182125655658
C            7.64110833117488        1.32192746367589        0.75715167102539
C            9.17775533971877        1.38462959839578        0.77634829988055
C            9.69306009686099        1.81438732792985        2.16163289787268
C            9.17530125977871        0.86386977648164        3.25756923290136
C            7.63887623908827        0.78806191020763        3.23892094691965
C           -1.41530685218221       -0.16657972628246        1.99826513423831
C           -4.90072984804461       -1.63776987675124        2.11890520851272
O           -5.45130151036776       -2.71378205411198        2.27867200693579
N           -5.63854143224218       -0.46901591669144        1.87398167473136
C           -7.10413322955296       -0.53233391167311        1.89120201800313
C           -7.65152923839764       -1.37025703150392        0.72285957531019
C           -9.18774710157588       -1.43772279527891        0.75696682195721
C           -9.68401383246731       -1.99192302825073        2.10452061799276
C           -9.15220143329335       -1.14343235898182        3.27489070173058
C           -7.61624720193670       -1.06361989974861        3.24264963310567
C           -5.05936907702353        0.78369351833010        1.63029682687217
O           -5.73997884323225        1.74682529791506        1.31863312426168
H            3.14479141668662        3.36497812313160        2.82597834995871
H            0.69095094213376        3.23415802666839        2.73618999660141
H            0.55118670290097        5.49163034000157        0.79404519211207
H            2.71621321618072        5.45994148509921       -0.31242194604206
H            7.29290672068961        4.87843757551436        0.04574087738972
H            9.59977997951286        4.61203143674265       -0.72537253948044
H           10.06381764090510        3.44784808761398       -2.84087545099858
H            8.20345648797945        2.57885126290039       -4.19122344198912
H            5.89986742770117        2.87730613980559       -3.44240082505665
H            4.76621006070567        6.68593598507053       -1.88564244151975
H            4.48648505145569        8.65528596524547       -0.43766555837578
H            4.44255006065520        8.38816141299441        2.00448485032417
H            4.70459696180615        6.15656112631401        3.00279305369584
H            5.00673622544259        4.19492176196376        1.55660699096751
H            5.01061265578969        1.04709132423249       -0.21618340390098
H            5.38476270966130       -1.17317414133674       -1.15955691501798
H            4.81703230558105       -1.61865646015518       -3.51810266640295
H            3.84961976742751        0.16846984605214       -4.90186735542277
H            3.46832622148424        2.40047159673536       -3.94082937219144
H            2.02578346072741        1.42817624997710       -1.52078291787809
H           -0.18340295694862        1.51334257361459       -0.50216848172942
H           -3.57951794475681        2.94829354994587        1.26070330925803
H           -3.13139543766218       -3.59491765228003        2.50996622398780
H           -0.67869107521060       -3.45392913574790        2.40309562280863
H           -0.56906017477251       -5.49787673527814        0.23504058169582
H           -2.74651817360834       -5.35025152996029       -0.83725319110987
H           -7.31952947711407       -4.81258820077900       -0.38356002632518
H           -9.63218631347247       -4.46984046048108       -1.10569183283688
H          -10.11256245095406       -3.09021129059474       -3.08350820816839
H           -8.26269687948938       -2.08207900851851       -4.34890721879707
H           -5.95356557068336       -2.45481103620033       -3.65268924155578
H           -4.81777768690670       -6.40765124412675       -2.50703355286825
H           -4.52891193677589       -8.51553347832756       -1.27150052665707
H           -4.45782578061112       -8.50004656321204        1.18454175126697
H           -4.70153931733509       -6.38179221483154        2.40889465226627
H           -5.01252831728352       -4.28188868118033        1.17482382053773
H           -5.03574811752639       -0.97159558027632       -0.26173981002409
H           -5.41726189551429        1.33453273691225       -0.96543598631525
H           -4.86971748259901        2.02375012848866       -3.26949953444124
H           -3.91508285771675        0.39105192602373       -4.84032458887939
H           -3.52680510444445       -1.92885929351422       -4.12059633346326
H           -2.06117592762594       -1.21611099538183       -1.63165805500633
H            0.15932561295232       -1.40800795753792       -0.65321548320898
H            3.57275042431697       -3.01700494341253        0.91208231715826
H            7.45912691622965       -0.63872242945961        1.63193363030803
H            7.21852333666969        2.31742333536427        0.92878053061692
H            7.27353207040335        1.00641716549843       -0.22641440457195
H            9.55302054510711        2.05508153041551       -0.00783507574290
H            9.58158568857391        0.39494395943467        0.53059818462656
H            9.34834541858900        2.83359927901009        2.37428011456568
H           10.79036132339283        1.86534767631044        2.17290582675160
H            9.53738739914106        1.17475531516310        4.24707043075180
H            9.58929342589645       -0.13858165833829        3.09490814125088
H            7.21237721929608        1.76418637587154        3.49398059947773
H            7.25974532987879        0.09426977455934        3.99951371696151
H           -7.45840493765820        0.50346797874093        1.76938883782044
H           -7.22591900533794       -2.37640792907056        0.79756852148947
H           -7.29750375591000       -0.96612537835451       -0.23287443746911
H           -9.57294371455321       -2.03560354209229       -0.07934316494904
H           -9.59582386995280       -0.43080266143102        0.60689253108386
H           -9.33575128142963       -3.02552046668124        2.21954453962060
H          -10.78102741932386       -2.04579691901897        2.12584500949767
H           -9.50082190762842       -1.54304002375078        4.23699714504032
H           -9.56883780960474       -0.13109340963551        3.20896381230151
H           -7.18570699776356       -2.05809605522104        3.40226795940465
H           -7.22725684170425       -0.44098405646888        4.05788877568805
