54
 energy: -11.785637653701 gnorm: 0.000482628253 xtb: 6.5.0 (97a52f5)
O            0.03816561228663       -2.67679602354649       -0.12769294773599
C            0.03467136920847       -1.46460824780153       -0.08224312109760
C           -1.13279861801451       -0.57831863110593        0.04560023342402
C           -2.47810775908028       -0.88296433723111        0.14125079584241
C           -3.38365944251517        0.15306626200038        0.25365179215748
C           -2.95447575057089        1.47429035129116        0.27052109780405
C           -1.61277901351440        1.78593107379894        0.17497417685751
C           -0.69420316928354        0.75168653819534        0.06118363047819
C            0.76273709332974        0.75675032233161       -0.05954923458695
C            1.68343572379268        1.79416782653171       -0.10439458350029
C            3.02151791170517        1.49109304854016       -0.23361237800511
C            3.47694737493869        0.16460458287162       -0.31950668305459
C            4.91571409296341       -0.13347897676175       -0.45886411052517
C            5.88320103532368        0.68728260888216        0.12478761404794
C            7.22062629388773        0.40643609213947       -0.00476194260684
C            7.65253607421662       -0.70889359486471       -0.72085799323990
N            9.04518831630182       -1.00445337916570       -0.84889726098489
C            9.96084014713759       -0.64106287181042        0.19575706981098
C           11.23096878096088       -0.15870646090803       -0.10979684213542
C           12.11127521418560        0.18435062468920        0.89102560839169
C           11.74094718270823        0.05048819221755        2.21478570439743
C           10.48599429117233       -0.42934961529820        2.53426974424279
C            9.60359710806127       -0.77273648261356        1.53542714104850
C            9.54138811845349       -1.67861472706870       -2.01514513794337
C           10.55042483054078       -2.63227395641700       -1.90652230361903
C           11.02557316711798       -3.28276466042147       -3.02246387677173
C           10.50415599542232       -2.99203794058100       -4.26775192122547
C            9.50622018687467       -2.04565089179888       -4.39289470170016
C            9.02944227592247       -1.39352685654122       -3.27853138908145
C            6.68932019508532       -1.53121021774764       -1.30304438417493
C            5.35190376719443       -1.24954629228655       -1.17620948507528
C            2.54082042498871       -0.87038899474217       -0.27401799804255
C            1.20140244581832       -0.56985961599436       -0.14585523645897
H           -2.79209333734109       -1.91201734944149        0.12638332802255
H           -4.43584737718174       -0.06671806215858        0.32942686849490
H           -3.67876687186320        2.26714121142443        0.35919187781358
H           -1.27296806263172        2.80646632939077        0.18670389794173
H            1.34501674646086        2.81337278675646       -0.04265218252440
H            3.73925807100661        2.29044963856526       -0.29040241084204
H            5.57039827587576        1.54240602388452        0.69804104350707
H            7.95612423656641        1.05358042863060        0.43991790804452
H           11.51033332640287       -0.05106619205660       -1.14324823896030
H           13.09057015495699        0.55834670170710        0.64109469664180
H           12.43097181010815        0.31956702283863        2.99761181263508
H           10.19731394200637       -0.53661785900948        3.56700590342056
H            8.62861710082203       -1.15816330119688        1.77728232603039
H           10.94628261762469       -2.85976749316307       -0.93231553406110
H           11.80434160333522       -4.02110861674260       -2.92389103948790
H           10.87558056545840       -3.50319407980756       -5.14075596911384
H            9.10040290013877       -1.81696177700978       -5.36467350628577
H            8.25974980578606       -0.64747824265102       -3.37097581764933
H            7.01057484941326       -2.40281612899163       -1.84567204465266
H            4.62527504959274       -1.88824630773566       -1.64717496224689
H            2.84681331684638       -1.89916948201545       -0.31828903367177
