139
 energy: -28.349020780453 gnorm: 0.000239976680 xtb: 6.5.0 (97a52f5)
C            0.03148218251557        1.80680766384272       -0.46781749290462
C            1.37004292961209        1.04684027602165       -0.40782715022743
C            2.20257945641262        1.55316048669620        0.78401527148428
C            1.06750099223504       -0.44906577761101       -0.19178257959748
C            2.14998683972513        1.28836027021780       -1.70919472964072
C            2.54998266994108        0.24933916708646       -2.54039914540358
C            3.22668873384210        0.49747890887199       -3.71267487677730
C            3.52465227603861        1.79973851292736       -4.10794469029643
C            4.17009958285834        2.06025042428588       -5.41967024541148
C            3.54845686724484        1.60353261366027       -6.60255386677390
C            2.21451154912049        0.95942091101812       -6.52556705045116
C            1.99015857398053       -0.31594078619635       -7.04862847878400
C            0.77743146353504       -0.93909209350864       -6.88644009907687
C           -0.25182832006705       -0.31410065853040       -6.18873356039165
N           -1.49241423167867       -0.99143245005744       -5.94396667086277
C           -2.10249028578537       -1.14887710924985       -4.68168569906334
C           -1.68429055877380       -0.75112713944734       -3.41240059071009
C           -2.47858791707186       -1.05111933671555       -2.33284804529539
C           -3.68121453872783       -1.74475391708438       -2.49508593646426
C           -4.10220095649411       -2.15219379285789       -3.73895638154630
C           -3.30535225036417       -1.85609761950067       -4.84539343240709
C           -3.44401282115700       -2.14647521797793       -6.25519306054440
C           -4.43217355915686       -2.80459049648291       -6.98829103235216
C           -4.28256126461828       -2.90942606196951       -8.35091296402111
C           -3.16718744098002       -2.36817701552421       -8.99631571737881
C           -2.18545594532649       -1.71922727500531       -8.28810390480434
C           -2.31903794139780       -1.61033734311200       -6.90487624917466
C           -0.04485499013675        0.96766840288019       -5.69040570650849
C            1.16194364712084        1.59554909064750       -5.86318175152743
C            4.18882467391955        1.77780288790756       -7.84069827533052
C            3.58728732872635        1.28937041473649       -9.00572101815694
N            3.08748702544609        0.88285763373336       -9.97391036885855
C            5.42828773352300        2.43685391481351       -7.91303242874998
C            6.12859526924964        2.57380288889848       -9.21308543045889
C            5.49266719047668        3.13078997078878      -10.32452010548057
C            6.15918892950908        3.28249261412316      -11.51496160842001
C            7.48887362108196        2.89149640469751      -11.63725682124388
N            8.19550990396922        3.07227612550523      -12.87260609700524
C            9.45314421253400        3.69403103273183      -13.02176507280084
C           10.28773874008101        4.29827725519483      -12.08265276770607
C           11.47124529343290        4.84901188816722      -12.50975704204087
C           11.83753932814437        4.81122330099921      -13.85813164094198
C           11.02175544774867        4.22627549690872      -14.79756176499181
C            9.81514897973670        3.66433955536683      -14.37906268625920
C            8.74806926529144        3.00032300116942      -15.09357464020563
C            8.57397170649921        2.67999052569867      -16.44046591205527
C            7.43207143383859        2.01370687299149      -16.81744731830103
C            6.46226821826061        1.65838534207307      -15.87583754274137
C            6.61898294896201        1.96824142729672      -14.54696633746258
C            7.76788350747112        2.65045656026468      -14.14931273048430
C            8.12690012222571        2.32892366706620      -10.53678287604779
C            7.45757511940541        2.16643617052251       -9.35035501862880
C            6.01814346693562        2.95096993169597       -6.73708420644083
C            7.28782278047822        3.71545507562172       -6.82167732694850
C            7.37708240668364        4.85757998886377       -7.61360227830839
C            8.56043007498388        5.55118946338591       -7.72140141208036
C            9.69988230575431        5.14320719985705       -7.04026547435709
C           11.00265019412701        5.94251222110233       -7.19585874063523
C           11.43459524340198        5.92466191231738       -8.67392551646971
C           10.76718454159804        7.39480109620206       -6.74061073129480
C           12.14346567792096        5.34744862013792       -6.34808324164859
C            9.60803959305004        4.00819487478993       -6.24292970395352
C            8.42857054352398        3.30584365937369       -6.13580084571693
C            5.39550208064851        2.74923756795597       -5.48982602343713
C            6.03017123966701        3.26354837996074       -4.25028023106802
C            6.24564086917993        4.62684062582801       -4.06879661318233
C            6.84617632216988        5.09838212319977       -2.92371189433825
C            7.25277516261288        4.23528231192630       -1.91413487647473
C            7.92491547654316        4.80304644918504       -0.65467596420721
C            9.20488263473714        5.55840435534516       -1.05870241574321
C            6.95264025462170        5.76708824034124        0.04983905165129
C            8.31084714896254        3.69025306446585        0.33905515323117
C            7.03140485950971        2.87499497633400       -2.09448325355522
C            6.43379745599293        2.39627627893735       -3.23873725148040
C            3.14280908480530        2.84071672522275       -3.26548741812524
C            2.47209257665731        2.58511881574457       -2.09060038609967
H           -0.56077398834344        1.62524078930777        0.42869709180919
H           -0.55434139453866        1.48817164024162       -1.32939929964398
H            0.18842415358719        2.88136456173377       -0.55006963239832
H            1.68008935199018        1.38303466895384        1.72507487031067
H            2.40283373357266        2.62065730078110        0.70169332743313
H            3.16062324392919        1.03600150545251        0.83123749453601
H            0.49846724770952       -0.59991008045622        0.72531721502202
H            1.98690948273158       -1.02759457973611       -0.10686105609985
H            0.47913945841458       -0.85369490763888       -1.01461178679903
H            2.32401236404793       -0.76822628374532       -2.27586686026055
H            3.51568836156393       -0.31722827404000       -4.35438113395072
H            2.78931388756387       -0.81178058079215       -7.57214714405992
H            0.61628525786482       -1.93075541173813       -7.27151586568522
H           -0.74986374790229       -0.23153315678607       -3.29678321931830
H           -2.17080472189748       -0.74968229990324       -1.34502440166225
H           -4.28523293296245       -1.96648129123482       -1.63058738519740
H           -5.02357836874924       -2.69156707016110       -3.87090610855933
H           -5.29017811244270       -3.21408241682872       -6.48491332548270
H           -5.03763634590828       -3.41323939493364       -8.93177287806057
H           -3.07808371254516       -2.45944377380869      -10.06647333181057
H           -1.32956499878674       -1.28976278666517       -8.77753377434280
H           -0.84690307408363        1.45737101768963       -5.16615135210462
H            1.31897228011546        2.58377244289347       -5.46658529178075
H            4.46578119622153        3.44088532418835      -10.23536693641644
H            5.66684774275705        3.72166549267643      -12.36491372647106
H            9.99119321045993        4.33271941053591      -11.04963462184291
H           12.12743916225292        5.31938636694609      -11.79590703513037
H           12.77242048622658        5.25039800419378      -14.16550911461105
H           11.29433965334889        4.19740395982750      -15.83782351691053
H            9.32786229125024        2.95165445246773      -17.15816422140066
H            7.28313783408018        1.75749419268636      -17.85356568457302
H            5.57949692742850        1.13050808794311      -16.19765434989469
H            5.88384747802291        1.68704925809567      -13.81416839860759
H            9.15026354181868        2.01151415306249      -10.63570656960722
H            7.95616085075143        1.72594914796733       -8.50432984462534
H            6.50440908344889        5.18541268915270       -8.15200293086434
H            8.60450006867349        6.42433919664670       -8.34890772244355
H           10.67914312213066        6.37982434887188       -9.31306331315712
H           11.59086349301633        4.90184561177053       -9.01566120962465
H           12.36520971097240        6.47357032210860       -8.81561178170482
H           10.00648791719373        7.88295010936875       -7.34825302865662
H           11.68218344487785        7.98137903110812       -6.81942178967970
H           10.43597171761858        7.42361087528252       -5.70281543979025
H           12.36448724302965        4.32418215388243       -6.65041409355669
H           11.88691017501416        5.34898219150944       -5.28899502935951
H           13.05694804289327        5.92985481462586       -6.46671997806767
H           10.46949532383004        3.66385391711328       -5.69910210595895
H            8.37531403033308        2.42478309643504       -5.51969657347790
H            5.93952306071188        5.30893796560585       -4.84326804891016
H            7.00557060634388        6.15648606217894       -2.80926985419062
H            8.98032168482201        6.39457200184482       -1.71951636504867
H            9.89414014994148        4.89540239496730       -1.58109572746371
H            9.71677025796396        5.95510227768527       -0.18227437772237
H            6.68960853442153        6.60535365372988       -0.59389088319149
H            7.39550474271681        6.17196155235463        0.95950390802773
H            6.03144139471909        5.25280886161304        0.32273191796138
H            9.01306484066111        2.98881927385501       -0.11068757253113
H            7.43201869769131        3.13757832591219        0.67017556274320
H            8.78749166724208        4.11104330832145        1.22419801209172
H            7.33016277733736        2.17712295330142       -1.33280077851007
H            6.27063578970291        1.33983177237036       -3.36582235661759
H            3.36741465822960        3.85296421902031       -3.55445218889973
H            2.18380722862630        3.40714600334555       -1.45877544120024
