108
 energy: -23.570355328563 gnorm: 0.000526098619 xtb: 6.5.0 (97a52f5)
O            0.79296790165235        2.19207472733958       -2.38989727534837
C            0.63856820027420        1.24215877545364       -1.64446249442314
C            1.78840504540251        0.54483060935164       -1.05435036339726
C            3.05356991647683        1.09769159973871       -1.18861061701555
C            4.15012955596696        0.49037131174950       -0.62680776516438
C            3.99383304358606       -0.68435846493439        0.08462622909641
C            2.74909298145324       -1.25218500598334        0.22089913176104
C            1.61707852699539       -0.66157418018995       -0.34901608922604
C            0.28282917715908       -1.27579254931930       -0.28012497320772
C            0.15188292868712       -2.61750460885859       -0.01730619059252
C           -1.02960038370823       -3.43693814822186       -0.24073540884492
C           -1.37317070605782       -4.45071509022529        0.66234363187861
C           -2.51052707964419       -5.19283302579325        0.48467999523419
C           -3.35635736968772       -4.97158146404027       -0.60680489266213
C           -4.61896770120825       -5.67656092429548       -0.74337216367130
C           -5.33128678046239       -5.87637638500241       -1.94058868563398
C           -5.29705657962208       -5.58392368524466       -3.36193881935739
O           -4.43659955694422       -4.98676328752611       -3.98604683666618
N           -6.49614224350400       -6.12013664957149       -3.87764805137671
C           -6.86411193400582       -5.81864386421338       -5.26589167842457
C           -6.31848606396660       -6.81721262415245       -6.23381022113059
C           -7.10851136730606       -7.38128899272541       -7.22381776925025
C           -6.58092375641918       -8.31231853362788       -8.09399961398603
C           -5.25571733040733       -8.68081768891913       -7.99278803909927
C           -4.45566890172819       -8.11121964418410       -7.02491329803677
C           -4.98613900944815       -7.18288437409098       -6.15529689234656
C           -7.24295311541470       -6.73692804718264       -2.88047308889583
C           -8.48691435090794       -7.47034271434788       -3.02514178993055
C           -9.28625078479069       -7.76052012404738       -1.91434783932961
C          -10.44707020263975       -8.47715676909023       -2.03826149179756
C          -10.85505098347794       -8.97669806154093       -3.28160331814800
C          -12.08556262958678       -9.73950419835496       -3.40256858646479
C          -12.35263526716348      -10.75360945280496       -4.29048006425499
C          -11.29787079535218      -11.43484082185678       -5.05721173875582
C           -9.98108573156722      -11.53112531066746       -4.59874747623918
C           -9.00523541787359      -12.14035882112236       -5.35045774612709
C           -9.31925091488177      -12.69468022045077       -6.57739111006240
C          -10.61663964708143      -12.66058797833346       -7.02955510252322
C          -11.61517174297636      -12.05747813090968       -6.27796710931073
C          -13.00769780827820      -12.12856890825186       -6.73740963870527
O          -13.28138505851408      -12.49609284175493       -7.86512208237318
C          -14.06005706861168      -11.78990448999116       -5.76990668116079
C          -15.37760448636396      -12.10913633244776       -6.06363822372655
C          -16.38372072137276      -11.83424157423897       -5.16956008422799
C          -16.08279603292991      -11.23553291276790       -3.96042168130162
C          -14.78416580111439      -10.90206171926155       -3.65583787439810
C          -13.74219962290999      -11.15988152038991       -4.55146601029825
C          -10.05666621775221       -8.68208770951774       -4.39468875884575
C           -8.89972533680029       -7.96274711806828       -4.26469714006144
C           -6.53605680159214       -6.53930196731676       -1.67651888808723
C           -6.62375746609719       -6.70696123156789       -0.23366096682917
O           -7.55436093397453       -7.14767328009458        0.41953931236466
N           -5.41998685381208       -6.17288244354204        0.27740707145524
C           -5.32817813295256       -5.88394697019793        1.71252833368660
C           -5.14960472516142       -4.42441819204062        1.98531804729788
C           -4.22244972093604       -3.96965638358574        2.90997481630710
C           -4.04227329919606       -2.61777223492970        3.11562212375941
C           -4.79384784336003       -1.70443759132641        2.40694700285054
C           -5.72638719055995       -2.14491106264319        1.49190822976722
C           -5.90222021400958       -3.49678282289008        1.28541085761297
C           -2.95930827109779       -4.02844699386142       -1.56044157082101
C           -1.83197035002209       -3.27402879267472       -1.37928126412684
C           -0.87706958857035       -0.41209756853633       -0.54886288701934
C           -2.16008176822959       -0.71169937455658       -0.08181350185634
C           -3.23447032639881        0.09248590853953       -0.37587752598258
C           -3.05954296467993        1.23736341819782       -1.12964405200949
C           -1.80103435511142        1.58405521384859       -1.55915498646758
C           -0.70377811425181        0.78789425564863       -1.26229103074497
H            3.15329136240817        2.01624432376294       -1.74173140969054
H            5.12742782805300        0.93087631117523       -0.73634889112220
H            4.85254751534690       -1.15717844907852        0.53228295829741
H            2.64918772250144       -2.15628685324012        0.79357182794292
H            1.02173824535851       -3.15030932923581        0.32505222838706
H           -0.74372086708446       -4.62009926300356        1.51881175374044
H           -2.75554107876679       -5.96958855549524        1.18534284714089
H           -6.45987820318293       -4.82991559089275       -5.50228533708344
H           -7.95056456271367       -5.73304753402449       -5.34196381387372
H           -8.13826190300830       -7.08047416301130       -7.31610618400808
H           -7.20472510263785       -8.74965047818183       -8.85627447757714
H           -4.84408544562600       -9.40700211405706       -8.67430993764457
H           -3.41672993778175       -8.38734016743662       -6.95009041734989
H           -4.37001844430150       -6.71319919330457       -5.40758552418283
H           -8.94805316525876       -7.44833253647734       -0.94235296324487
H          -11.04380433126059       -8.69308802177658       -1.16885880202018
H          -12.89096321608938       -9.40349372026280       -2.77325388040691
H           -9.73172773815200      -11.12134955110468       -3.63593668215795
H           -7.99314112719068      -12.18577332700234       -4.98328000459036
H           -8.55305504338727      -13.16887185568737       -7.16828268091332
H          -10.88730865874927      -13.11668819148994       -7.96664225973907
H          -15.59067921205900      -12.58045629100222       -7.00807845584940
H          -17.40305463262678      -12.08984702605161       -5.40784968568816
H          -16.87071071841296      -11.02887898921130       -3.25490237216379
H          -14.56954777644771      -10.45447686517458       -2.70229977285103
H          -10.36286793397601       -9.03757484300074       -5.36321713610220
H           -8.26665921084114       -7.81870467703853       -5.11816697039299
H           -4.52102477184505       -6.47627669044641        2.14771216443362
H           -6.25462220521899       -6.23378788487703        2.17792697765685
H           -3.63411496821489       -4.68327041092895        3.46070923941782
H           -3.31385421436197       -2.27510334032183        3.83203810912378
H           -4.65588561940552       -0.64851345772778        2.57213819412137
H           -6.31942531461205       -1.43489199189392        0.93921761747452
H           -6.61886930969881       -3.84953852531961        0.56374610517403
H           -3.54386651280717       -3.92097878046913       -2.45722841276277
H           -1.54534995803966       -2.54530881045496       -2.11776267438978
H           -2.30703563556905       -1.58600133676476        0.52678452791211
H           -4.21573084190639       -0.17127587168903       -0.01903177593580
H           -3.90337702873940        1.86500691016043       -1.36434160941178
H           -1.63853984084340        2.48884320836505       -2.11995775100727
