32
 energy: -6.773493505742 gnorm: 0.000949115525 xtb: 6.5.0 (97a52f5)
O            0.97421645414188       -0.31816271644862       -0.13656177250064
C            2.18249768370778       -0.23800811871601       -0.11648772609627
C            3.16484393457938       -1.32980243698928       -0.10183027526493
C            2.99063712953776       -2.70126337001210       -0.11334931698938
C            4.11083139357930       -3.50531641196540       -0.10831181804157
C            5.38464451770776       -2.95103421127295       -0.09450619483723
C            5.56382479645334       -1.58373860248006       -0.08517170262590
C            4.44225801672003       -0.76599384037801       -0.08891217231200
C            4.28717677819534        0.68560053158333       -0.09129088017223
C            5.22908907545927        1.66981304546045       -0.07741080182454
C            4.86586743858470        3.04599139158187       -0.08177110607728
C            5.84665818961931        4.05195724496030       -0.06704842033642
C            5.47072712047811        5.37548054000271       -0.07181058040334
C            4.08195804587519        5.73792032720451       -0.09132557030623
C            3.11590169183712        4.75769892187015       -0.10600727212750
C            3.50737929281377        3.42961818171050       -0.10143590457686
B            2.45533585999737        2.32157349411914       -0.12006717027692
O            1.07274569200457        2.54487348599989       -0.15054275558297
N            2.92884779123056        0.95446409856330       -0.10754761063188
O            3.96845072549096        7.11223841814146       -0.09234977735210
C            5.30543755871718        7.59191164131325       -0.07112741539403
O            6.23915772610384        6.52092330090493       -0.06035260656441
H            1.99567749882868       -3.11110649524642       -0.12719906382227
H            3.99600311401696       -4.57655524891810       -0.11687166563902
H            6.24538397311113       -3.59895389525571       -0.09214241996915
H            6.54742528523821       -1.14877244313333       -0.07724408104097
H            6.26942546162814        1.40329414494413       -0.06304667824429
H            6.89013359457128        3.79974311132698       -0.05244222333880
H            2.07366936624725        5.01808896437888       -0.12172569757924
H            0.76158845416409        1.61227488543768       -0.15460977821931
H            5.45104904126338        8.20056033038626        0.83171828442263
H            5.47766729809631        8.20653173092600       -0.96520782627506
