35
 energy: -7.492382211133 gnorm: 0.000722835346 xtb: 6.5.0 (97a52f5)
O            4.05375858295211        0.70371313841164       -2.72046516432846
C            4.30749563706293        0.97429496006105       -1.56743705935994
C            3.39727520733886        1.61899436032589       -0.60479772865323
C            2.09963756183764        2.06743277675885       -0.75529066344083
C            1.47444916431107        2.64717745415063        0.33007177299331
C            2.13421065623917        2.77795112825677        1.54497817996900
C            3.43165475225412        2.33381535310130        1.70103124018482
C            4.06908648366675        1.74940635226728        0.61640545367370
C            5.41153503089609        1.19708835383785        0.44606331671779
C            6.44844955945405        1.11293912087656        1.34291445850400
C            7.67587183639076        0.55180874752563        0.96124809862369
C            8.75154584863911        0.46934729717082        1.87668792732994
C            9.93618348034637       -0.06899768892723        1.50509674100465
C           10.12055145546135       -0.56313876729653        0.19042151550817
C           11.33355303357222       -1.12818243006597       -0.23804031096975
C           11.47170820516683       -1.59379593221964       -1.51548741907382
C           10.40734275205226       -1.51451708590636       -2.41263804866469
C            9.21894158343925       -0.96951240708978       -2.02252091274290
C            9.04331830887995       -0.48065801850040       -0.71927158274122
N            7.85356433770904        0.07755824863562       -0.30530247007734
B            6.75600747180989        0.12904811409561       -1.38097932008749
F            7.23210357514284        0.89639120749478       -2.43614478218822
F            6.47910767508104       -1.17525610797518       -1.76822318725064
N            5.48570909594694        0.76531003281963       -0.83916049098821
H            1.60654937412050        1.95816000690967       -1.70561193070033
H            0.46216044808778        3.00297832272253        0.23187825820218
H            1.62609108637840        3.23398744123890        2.37832684932047
H            3.94797823893773        2.43377022970554        2.63914763528827
H            6.31785812519002        1.48292603032367        2.34258497202303
H            8.61426116015097        0.84453391122006        2.87591271866109
H           10.75192721158435       -0.12868868864071        2.20422640363033
H           12.15494600148918       -1.18886928107276        0.45452851809388
H           12.40622740743683       -2.02550591493329       -1.83327957790347
H           10.52485497477226       -1.88525254101158       -3.41760255335499
H            8.39212467620215       -0.90380772426299       -2.70865085720262
