46
 energy: -10.087506600190 gnorm: 0.000178807982 xtb: 6.5.0 (97a52f5)
O            0.66665727487948       -1.77552165551349        2.64293706069087
C            1.82330497067781       -2.09592958942938        2.65491643802816
C            2.63444467463767       -2.31804802587298        1.46265707278523
C            3.97702658848230       -2.66925489670404        1.54576755280630
C            4.71844321614100       -2.86269291672993        0.40462203112391
C            4.14473310319976       -2.71229465641104       -0.85725374746898
C            4.94302986671864       -2.89745804479690       -2.08684744670634
C            6.26919829757270       -2.44772726533900       -2.15466979032670
C            7.01912228106302       -2.56761904438553       -3.30513740648422
C            6.44129967159941       -3.15028211376485       -4.42297337749196
C            5.12263702794155       -3.61282828485007       -4.36389641778468
C            4.37511609138327       -3.49363854398206       -3.21336865599777
C            4.74808346867573       -4.15764633368876       -5.68045625244582
O            3.68876289277884       -4.64879814205195       -5.99605382232441
C            5.93282772141548       -3.96694856295970       -6.53503440241516
C            6.11302361873611       -4.25467828793316       -7.86967682910211
C            7.32841189045579       -3.94177092016720       -8.47951090094208
C            7.52699849728862       -4.19435722437089       -9.92170611905674
C            6.48532467661162       -3.99856405738271      -10.82810367305349
C            6.66755075780425       -4.21220809696692      -12.17327034138282
C            7.90138514576091       -4.62963053387174      -12.65845496700599
C            8.12911161294483       -4.85539213896462      -14.08180641043141
O            9.17638873665619       -5.19560760956858      -14.55940969284538
C            8.94077436466099       -4.83039881058690      -11.76226793034653
C            8.75951542212436       -4.61768347400257      -10.41668185136249
C            8.34115076629581       -3.35418887859441       -7.70827106140302
C            8.16311879135404       -3.06788391375861       -6.37156915271534
C            6.94696275563374       -3.37115208762174       -5.77832027353241
C            2.79647528572875       -2.36467778262409       -0.93073320842684
C            2.05648887217452       -2.17116881628712        0.21064012230325
H            2.28148268975028       -2.22078539395188        3.62597349874143
H            4.43054404533456       -2.78741917888120        2.51473517450041
H            5.75368738060302       -3.14644062468135        0.47909526206491
H            6.69884803674355       -1.97320927463330       -1.29003318389661
H            8.03113668016662       -2.20654892074634       -3.35139421318482
H            3.36584052846903       -3.86188238150095       -3.19773247708650
H            5.31667702442252       -4.71754173143084       -8.42283492826774
H            5.53194715647018       -3.65661444930758      -10.46456688786141
H            5.85676035308885       -4.05298722576332      -12.86314079761791
H            7.30798679884278       -4.70741196305394      -14.76923767035261
H            9.89207705352714       -5.15634319483840      -12.14819063878871
H            9.57082451975302       -4.79052559712462       -9.73145049806459
H            9.27115428668022       -3.09822281109037       -8.18463462733555
H            8.94164936546743       -2.60461463036634       -5.79194916698130
H            2.34013642508210       -2.22905186597866       -1.89578033804713
H            1.01602931420694       -1.89757004746645        0.15637494545289
