76
 energy: -16.811581797754 gnorm: 0.000755445117 xtb: 6.5.0 (97a52f5)
O            1.14638289414212        0.78489807442614        0.50443125771076
C            2.15319544228233        0.14857077511269        0.33402855840283
C            2.85128482530978        0.01281168826905       -0.93376803916858
C            4.01399602359478       -0.74768260336213       -1.05031013566489
C            4.65380597969921       -0.85924931027336       -2.25922628299213
C            4.15740608247544       -0.21738750646827       -3.39507712537705
N            4.82603125459403       -0.32770382744014       -4.65230504996599
C            5.55159525664351       -1.51881443658328       -4.99249278945117
C            6.72750175110102       -1.44524221472464       -5.73595575574521
C            7.41377684417272       -2.58427494204674       -6.07978971247684
C            6.95073784916380       -3.83298873571134       -5.68251527529160
N            7.67543057775974       -5.02552881056615       -6.03765424334220
C            8.39343782111493       -5.85297536341710       -5.15338150320659
C            8.59344968179229       -5.75688711035251       -3.77728624188131
C            9.37183802911396       -6.70322556536687       -3.15784637314154
C            9.95660961117116       -7.74453517341588       -3.88548118110077
C            9.77129906136896       -7.85148342476450       -5.24259498321751
C            8.98317029849949       -6.89637631417857       -5.88778668129267
C            8.61215654077848       -6.70969738745940       -7.27014265741239
C            8.89747747326360       -7.43279346944822       -8.43003765418433
C            8.37941557205493       -6.99307890300868       -9.62410607361392
C            7.58279783431489       -5.84530965206522       -9.68543156908148
C            7.29607896359800       -5.12134582548749       -8.55456236853485
C            7.81550189939730       -5.55346959791946       -7.33535706725522
C            5.78031665761561       -3.91253802622602       -4.93708423282327
C            5.08853351721017       -2.77366065516231       -4.60254844465106
C            4.79936017132758        0.76679490118420       -5.58194934680715
C            4.70862736346465        0.53439916550891       -6.95240641746439
C            4.71572120202714        1.58000876083975       -7.84327908928471
C            4.80767353256951        2.89162836546845       -7.39202916254776
N            4.82648959558740        3.98545681535490       -8.32539628555697
C            3.94745599772962        5.08590124953943       -8.33529844992990
C            2.86157660927890        5.39369779516322       -7.51670357627355
C            2.15401021715353        6.54385253099951       -7.76491055880240
C            2.50679266497136        7.39460207951915       -8.81706266613772
C            3.57040533760736        7.10341134750328       -9.63624829055548
C            4.29916081086141        5.93651402241046       -9.39772724457552
C            5.43535093272062        5.34506453671898      -10.06205067698325
C            6.20331810344643        5.74930239444919      -11.15589808745336
C            7.25617596966621        4.95936184640344      -11.54919205463002
C            7.55978043016437        3.77411893763347      -10.87224362539237
C            6.81240969596469        3.36187772056179       -9.79683517430369
C            5.73667674639146        4.14905758675650       -9.38785536137202
C            4.89081532382059        3.12866115997887       -6.02488302871900
C            4.89008593674578        2.08285580882156       -5.13424133517431
C            2.99328069810015        0.54244953515383       -3.27158389544833
C            2.35345953067831        0.65398339665988       -2.06292865234080
H            2.55885092895630       -0.35651087598851        1.19914250084743
H            4.40616963007241       -1.24497737156906       -0.17990334693725
H            5.56003200182050       -1.43312441660045       -2.34153536516697
H            7.09465179835541       -0.47865853153143       -6.03321095671760
H            8.32205693272976       -2.52702769007506       -6.65370655233347
H            8.14254937100917       -4.94952966504648       -3.22839033837038
H            9.53714957718451       -6.64244836002409       -2.09475688188797
H           10.56396814381852       -8.47219797326796       -3.37298025178536
H           10.22153342335501       -8.64689746048808       -5.80969693422552
H            9.50934289455352       -8.31571721495412       -8.37470783018381
H            8.58759087073715       -7.54158671235462      -10.52790778870978
H            7.18729803589423       -5.52570873052007      -10.63550116141326
H            6.68226799355534       -4.23904287330699       -8.58936301605332
H            5.42227887920648       -4.88152107603460       -4.63620079348912
H            4.17117093071870       -2.83904568627288       -4.04427768614014
H            4.62915675293244       -0.47966637838826       -7.30300905054267
H            4.64178958675845        1.39941468345707       -8.90134473060319
H            2.59303941446906        4.73013062611260       -6.71436327208977
H            1.31230375163545        6.79510736122761       -7.14073142810574
H            1.93334510433154        8.29061916093668       -8.98838084280041
H            3.84556224519442        7.75062756609814      -10.45012755476119
H            5.96635239252200        6.66477327354885      -11.66848377691517
H            7.86019346167417        5.25832442640405      -12.38992551980782
H            8.39479055977371        3.17669523138523      -11.19942962558952
H            7.04299078650517        2.45597878676871       -9.26547425159826
H            4.97151218072350        4.14391016945364       -5.67796321048117
H            4.97550729331932        2.26749967610830       -4.07775683363383
H            2.59508208192570        1.03014299279626       -4.14388733412696
H            1.45357836371532        1.23733542308207       -1.96585156189490
