138
 energy: -27.832334440901 gnorm: 0.000180751164 xtb: 6.5.0 (97a52f5)
C            0.52779774852586        1.06914533252900       -0.61353066878053
C            2.01546693719494        1.42563902408471       -0.43333290319025
C            2.11155247303283        2.88777272678058        0.04301305581112
C            2.63978024528428        0.52177536287472        0.64600834239321
C            2.75233088303263        1.20984488385195       -1.76390289958827
C            2.76895838134254       -0.05411494093362       -2.33909429905309
C            3.41283295681267       -0.28706799923527       -3.53243375596754
C            4.06483463661402        0.74313745654754       -4.20611841303384
C            4.73033344135023        0.48766072707435       -5.50772260214917
C            3.99169694505681       -0.05501766625331       -6.58392574310102
C            2.52805606360902       -0.25594216975718       -6.49013287426358
C            1.93940354866937       -1.46031094249223       -6.88062819721971
C            0.58285571572359       -1.64827562883938       -6.76932871180766
C           -0.23384026487147       -0.64086847669837       -6.26432115239432
N           -1.64675533186869       -0.84203951440243       -6.11596585834001
C           -2.40122769632879       -0.55907550132009       -4.95734497856311
C           -2.00715486815376       -0.09301542507415       -3.70338009246392
C           -2.96461875878341        0.08701249758271       -2.73518737620718
C           -4.30992026246988       -0.19243926727210       -2.99238515929551
C           -4.71351562250202       -0.66084954933072       -4.22039552854244
C           -3.75171560757481       -0.85044093626148       -5.21351711792884
C           -3.83726207660477       -1.32733640026036       -6.57542322396552
C           -4.91407920075870       -1.73978845768949       -7.36148948950844
C           -4.67371865194626       -2.12619554272622       -8.65875421280138
C           -3.37997591396793       -2.10534284913289       -9.18736036968062
C           -2.31040431192134       -1.70248823175619       -8.42540793045021
C           -2.53549163624443       -1.31516887365887       -7.10502578438043
C            0.34501485135740        0.56690124063724       -5.88945443896946
C            1.69872015388032        0.75778772241511       -6.00580736646999
C            4.65293626177114       -0.38462411374231       -7.75825753623958
C            6.01230361309671       -0.16632811403460       -7.92945671364604
C            6.66920954040626       -0.60250370042215       -9.18230197432367
C            6.12084680345861       -0.29450282665658      -10.42884564889053
C            6.74725628615912       -0.68433160663698      -11.58797503698606
C            7.94289687917133       -1.39525835406626      -11.54374950845760
N            8.61641407834047       -1.78098707804001      -12.75054370219481
C            9.98687811695030       -1.58804532301285      -13.02684954819672
C           10.98783016411821       -0.96157494069391      -12.28483031785827
C           12.25772616067422       -0.90467276286165      -12.80511022137525
C           12.54905017142674       -1.45849394454414      -14.05511217518598
C           11.57181157773067       -2.07179733026119      -14.80288040925465
C           10.27637260297690       -2.13570755714765      -14.28806104678246
C            9.04628955893934       -2.68795354493045      -14.80908573660470
C            8.74505123541668       -3.36070826573110      -15.99408464507029
C            7.45590076724695       -3.79268226115261      -16.19776830759827
C            6.46278789704402       -3.56926679770747      -15.23994241488706
C            6.74436736291904       -2.90804899803597      -14.06933873552613
C            8.04506380145555       -2.45595426584953      -13.85049466684580
C            8.48542059211793       -1.71853281779589      -10.30463363159708
C            7.85761241609207       -1.33494629819911       -9.14653939785298
C            6.74614417133209        0.44835730741275       -6.88950079812972
C            8.17642282213454        0.78877449315549       -7.09189640022118
C            8.56521632252802        1.60696207050153       -8.15002573177507
C            9.89135646985022        1.90747382794845       -8.35992297521446
C           10.88358489222907        1.41330220102458       -7.52321361868906
C           12.35237752962476        1.76865359749802       -7.79924710032360
C           12.74654824394144        1.24639400082745       -9.19366974435195
C           12.52423411628151        3.29830441103669       -7.74893004149176
C           13.29816370547485        1.14017167133390       -6.75782869438090
C           10.49478943006967        0.60269479147346       -6.46273487097275
C            9.16979888587270        0.29327703181194       -6.25047709690472
C            6.10449791702438        0.75682939206729       -5.67240054678023
C            6.87998283961746        1.36533313657273       -4.56191258266820
C            7.46206968484090        2.62190028718677       -4.70111129393968
C            8.19214353209411        3.17664699376939       -3.67457342721743
C            8.36880150956645        2.50659455253911       -2.47067923344585
C            9.19728691727155        3.15900170464221       -1.35352260295423
C           10.62738689471848        3.41392090049610       -1.86528219936675
C            8.54398869184141        4.49339172920932       -0.94883780141232
C            9.28102580178674        2.26076444159181       -0.10417632680937
C            7.78180770818419        1.25433835224209       -2.33183331055946
C            7.05298778160636        0.69209440001090       -3.35590550799610
C            4.05239046887906        2.01102278037096       -3.62946208106070
C            3.41040373082558        2.23625063281372       -2.43207367340343
H           -0.02674846419109        1.22918406918347        0.31086354536739
H            0.40159437392267        0.02594221994389       -0.90046475951259
H            0.07569034020551        1.68634479426603       -1.38961232063803
H            1.58490288068982        3.02159763594442        0.98782375186996
H            1.66414202943229        3.56696501607975       -0.68228079603664
H            3.14913183194167        3.18181034474248        0.20007231259134
H            2.15037966240317        0.66828267267386        1.60867378264986
H            3.69950158946314        0.74484159225113        0.76858538739627
H            2.54809198840732       -0.53133225643760        0.38331258085145
H            2.26630952758310       -0.86656035962088       -1.84365433502274
H            3.41190948433258       -1.27219744209865       -3.96667670827609
H            2.56694098713571       -2.25187408309179       -7.25244411445713
H            0.13630327158404       -2.58649359724526       -7.04880411044071
H           -0.96844456170817        0.10716681876252       -3.50964954563298
H           -2.67506544141620        0.44735977302116       -1.76153846452468
H           -5.04056304836747       -0.04101181094188       -2.21473955432178
H           -5.74621859817601       -0.88240264473052       -4.42501858426666
H           -5.90767926393042       -1.74633601997944       -6.94906424048327
H           -5.49458534797080       -2.44603045852008       -9.27957463287263
H           -3.22054793672847       -2.40733313939970      -10.20964744477971
H           -1.31423681442393       -1.67140739786502       -8.82909338041456
H           -0.28790259721939        1.35311792831477       -5.51641277492739
H            2.13819972434012        1.69651545361878       -5.71611452847907
H            4.09268563621848       -0.82513225015154       -8.56320275932230
H            5.20709856191650        0.27282106729131      -10.47162908208112
H            6.33366145721670       -0.42455418685457      -12.54673681853465
H           10.75261820972615       -0.52671331744124      -11.32978732521600
H           13.04171414600240       -0.42435255939727      -12.24266054075426
H           13.55447013464477       -1.40070805133146      -14.43890403952809
H           11.78683890684510       -2.49678629132364      -15.76754748215873
H            9.51684189307615       -3.53472295701367      -16.72307857675630
H            7.20706027323799       -4.31514558849187      -17.10696598830140
H            5.46159508968681       -3.92434609095055      -15.42220004513902
H            5.98870618275110       -2.74406682524766      -13.32210400792273
H            9.40006917592485       -2.28424748507209      -10.26913639530170
H            8.28246057418882       -1.59217144705033       -8.19175761674158
H            7.80914939666372        1.99558411401114       -8.81061137020240
H           10.16488334704862        2.53498929081309       -9.19033707417486
H           12.13864458460148        1.70211491984010       -9.97427166510140
H           12.61122482670348        0.16662451084809       -9.25241610698138
H           13.79073659950519        1.46825809742398       -9.41293512769680
H           11.91741743764624        3.79119264453203       -8.50737863193750
H           13.56307225767661        3.58006954219438       -7.91962088135961
H           12.22447155738467        3.68718194889417       -6.77593075178766
H           13.22875407684630        0.05272646954133       -6.77025456182246
H           13.06421656604848        1.49163397343358       -5.75309100248387
H           14.33427535494057        1.40613809310521       -6.96679671545840
H           11.23565357666652        0.20435315479423       -5.79269324481851
H            8.88529275714880       -0.34031633574756       -5.42808688999739
H            7.33793671621406        3.15227226606669       -5.62965475151050
H            8.63682574536108        4.14746765137679       -3.80843843312988
H           10.62869375007683        4.09149564397610       -2.71815825631234
H           11.09569152063393        2.48116380629105       -2.17900558273971
H           11.24718002692900        3.85786431696419       -1.08650736568572
H            8.51019200687353        5.18857544467713       -1.78671456093566
H            9.09978482577372        4.97105012021118       -0.14219145965982
H            7.52204652449946        4.33282299053989       -0.60586595169021
H            9.75392698305767        1.30706695532207       -0.33746448890495
H            8.29044726345264        2.06594925961399        0.30625768762962
H            9.87240545320040        2.73895273635465        0.67655722893229
H            7.89473546404911        0.70757364291126       -1.41270045376340
H            6.60503604414453       -0.27937960522689       -3.23532787943174
H            4.55238867837652        2.81755022770872       -4.13763323007237
H            3.42127006714518        3.22722858630083       -2.01451008151949
