58
 energy: -12.371337709776 gnorm: 0.000338109878 xtb: 6.5.0 (97a52f5)
O            0.95540141916860       -0.26663122736084        0.39983808695116
C            2.14036044369964       -0.05735184919937        0.41918082221678
C            2.99824032596925       -0.21993297901981        1.58064612890154
C            4.36944747452834        0.02524453133803        1.51658252209824
C            5.15827402946446       -0.14201706007586        2.62685762696887
C            4.60946063044549       -0.56232164935854        3.83953322422109
N            5.43905240856898       -0.75321738011813        4.98733823344265
C            6.59298912541997        0.07737711975026        5.18846054802499
C            7.77973541382589       -0.45761868207828        5.68272024537053
C            8.88043561006713        0.34413401275441        5.88465051935663
C            8.81666881923435        1.69362378322726        5.59710472105763
C            7.64662334225109        2.23914752030718        5.10618997283338
C            6.54460136311235        1.43961685258393        4.90358112468798
C            5.13122090700245       -1.78028961550404        5.94320829965273
C            5.38633208181419       -1.59038024875519        7.29873947637858
C            5.10346759541011       -2.57669448523860        8.21189650551660
C            4.54625287921674       -3.78622343025456        7.80468732366073
N            4.24763725975463       -4.81621562446053        8.75847126706504
C            3.82131310248495       -4.46830269976662       10.08323530120994
C            4.24494498892837       -5.21189885442316       11.18194462334751
C            3.84926304189677       -4.87118838807128       12.45551345141447
C            3.02183659599535       -3.78361857319627       12.65577922477056
C            2.58959514866006       -3.03857192574111       11.57605254033681
C            2.98431704025486       -3.37682687837766       10.30143908785663
C            4.37413810609978       -6.19640164829008        8.38798532058228
C            3.46045918717307       -7.14099525812099        8.84891528641576
C            3.57420902683158       -8.46385380893594        8.48589588402003
C            4.60265149280011       -8.86858703265614        7.65760660185444
C            5.51860638827583       -7.94442791043451        7.19433049966032
C            5.40684856102664       -6.62086857250882        7.55556402782731
C            4.28784980049159       -3.97458645403684        6.44944013165633
C            4.58084762133584       -2.99252251012804        5.53518995323372
C            3.23561450981920       -0.80025941158454        3.89899749589555
C            2.44648594642129       -0.63221973127280        2.78913369097549
H            2.58822274266609        0.27406509623618       -0.50694084256416
H            4.80373303199186        0.34294402946648        0.58431265702238
H            6.21831217688468        0.03289627434325        2.57112719244624
H            7.82462344542668       -1.51089265142841        5.89787307761379
H            9.79337093641741       -0.08180613372566        6.26737357667113
H            9.67867236714287        2.32053582056141        5.75608298759640
H            7.59533722100948        3.29229872744990        4.88339843470171
H            5.62616430004069        1.85977510428233        4.53246238066309
H            5.80712978927305       -0.65442472196953        7.62172478540839
H            5.31709620455269       -2.42842228887069        9.25575187981499
H            4.89793657435660       -6.05148263250024       11.01979785614001
H            4.18791599637676       -5.45228000526991       13.29758314943473
H            2.71432376070341       -3.51663243321907       13.65351423069467
H            1.94235057118754       -2.19108511062858       11.73174610317625
H            2.64517147088210       -2.80491467643452        9.45555387589156
H            2.65525027323520       -6.81696611898893        9.48472064977294
H            2.85809258688439       -9.18404291991327        8.84636355711069
H            4.68990370189824       -9.90420956172295        7.37265045208464
H            6.32173523377583       -8.25985692480565        6.54865461651974
H            6.12144223525987       -5.89743542752662        7.20397306755995
H            3.84794805061489       -4.90225867893543        6.12820773504401
H            4.39366585008651       -3.15224471138608        4.48785431203026
H            2.80032164780662       -1.10671115715569        4.83383318784253
H            1.38617814407900       -0.81489882885166        2.83195130785510
