42
 energy: -8.709046325265 gnorm: 0.000688695967 xtb: 6.5.0 (97a52f5)
O            4.21550171252592       -1.39602756740070       -0.71533675832372
C            4.33185533928270       -1.10662369057908       -1.87527207997408
C            4.04198716932941        0.20609600070328       -2.43110103809583
C            4.22451639785283        0.48545059796415       -3.78308352713658
C            3.94535069910996        1.73325679133927       -4.27714746905281
C            3.47876660594917        2.74698067441258       -3.43894818365854
O            3.20631699758395        4.00564001112675       -3.98868082461712
C            3.05865832908438        5.11465229692162       -3.14041856896243
C            1.88735180638447        5.85928091891218       -3.19012670124806
C            1.68204560022034        6.93634504412600       -2.35151280630421
C            2.64096808987372        7.31993365170948       -1.43824721431464
C            3.86452787205384        6.61186981099350       -1.36917327106732
C            4.87667133226591        7.00792700155031       -0.46190334945935
C            6.07043156255639        6.32910121456074       -0.43767661671232
C            6.29702081494461        5.25796453353511       -1.29434509113075
C            5.32893837211698        4.85778700074474       -2.17325909660460
C            4.08945359411235        5.51145112183065       -2.22554486758397
C            4.65430980684108        8.15417584414974        0.42333471545805
O            5.53672804354842        8.54436160276852        1.16608514045056
N            3.40969878275582        8.79686485720347        0.36462466123505
C            3.12010484937926        9.89726954506976        1.26553317139039
C            3.61665577983888       11.21519438329769        0.69405682741024
O            5.02551322221825       11.26817312316779        0.64709997972823
C            2.40423381310867        8.45109607384148       -0.54668469450897
O            1.35978039894717        9.07746122402559       -0.59026980692440
C            3.28773102857168        2.45770977378362       -2.08685835250412
C            3.56837931871459        1.20975039259870       -1.59472615214848
H            4.67744793625737       -1.88816336663880       -2.53760033885197
H            4.58603323537910       -0.28905281094488       -4.43720369570757
H            4.08034072216553        1.95710823370532       -5.32049935147725
H            1.12899492739246        5.56300073911614       -3.89267484506449
H            0.76333739400356        7.49722060200327       -2.39140140547556
H            6.83003819205534        6.65314758871262        0.25378911902214
H            7.24352756138880        4.74398380407182       -1.26567785512808
H            5.51038763217838        4.03821823458245       -2.84552835484963
H            3.59658876328231        9.68839737755334        2.22793090782801
H            2.03682696857148        9.91620600791243        1.42758476831514
H            3.27474687301826       12.07671747925150        1.28271708431480
H            3.24499570058027       11.34827086271244       -0.33072500540088
H            5.36588796344913       10.35603448931772        0.80805712104398
H            2.91063598935038        3.22667510422250       -1.43695995925089
H            3.42527280176576        0.98037342206442       -0.55211621467102
