66
 energy: -14.674464140722 gnorm: 0.000650733147 xtb: 6.5.0 (97a52f5)
O            2.05227934923783        0.06699056259374        1.28873085547627
C            2.87758367315601       -0.20937100041865        0.45987561742962
C            3.26849329427623        0.65217301449043       -0.64719564772224
C            2.64592709661320        1.90524518935320       -0.78611080108878
C            2.96848853016750        2.75909759243175       -1.80708668686380
C            3.94288495476489        2.36595870688111       -2.72510587740743
C            4.56927495795956        1.11238769453677       -2.60181492353332
C            4.23336839182556        0.25471288183475       -1.55946321482887
C            5.49933395208632        0.98921502179870       -3.69951842367488
C            6.38740869272024       -0.01976268470892       -4.07116563353385
C            7.16645817409487        0.16717397702567       -5.18734778431059
C            7.07744835106430        1.34196112521117       -5.93809351037235
C            6.20641120320069        2.34299648819192       -5.58519415099037
C            5.40524008745506        2.16691015076496       -4.45880077066038
N            4.45091942620531        3.01815365059749       -3.86234834680955
C            4.05950009225981        4.31412861741849       -4.34267796459452
C            4.10085625719782        5.42248836869714       -3.50404596455313
C            3.72253916260823        6.66082504297352       -3.96274792758602
C            3.28040715286058        6.83299814569514       -5.27526513481588
C            2.86169056268446        8.16214581908416       -5.76775017252700
C            1.71325285938070        8.30598112978070       -6.54766574645901
C            1.32123192280505        9.54105684462916       -7.00302704908268
C            2.06750586258509       10.67529743604073       -6.70309621340173
N            1.65750870438170       11.96616621908334       -7.18181653908193
C            2.45099941392769       12.86655827597357       -7.92369841867646
C            3.75774944537030       12.75555860672349       -8.39443578419305
C            4.28846665578260       13.79446301074517       -9.11832913486059
C            3.53963234398394       14.94359502890162       -9.38384898450828
C            2.24826930329689       15.06652690306486       -8.93115999733474
C            1.69507768304494       14.01837219982137       -8.19631253096456
C            0.39466354901531       13.82790352398991       -7.59816926214365
C           -0.73366030861738       14.63895196352133       -7.53372004550453
C           -1.85211496085006       14.18064439600126       -6.85544059941101
C           -3.05725063341274       14.99164367002358       -6.75469613229349
O           -4.06214437518634       14.66332343306231       -6.18307261780189
C           -1.83220074859052       12.91446757750125       -6.24461468196138
C           -0.72811510665054       12.10621228256607       -6.30131956153181
C            0.39857304946088       12.56088209365027       -6.98719595020586
C            3.21481431933466       10.53888624623106       -5.92948158555586
C            3.60311178594715        9.30545242568338       -5.46594791491393
C            3.23915576166303        5.71589550755183       -6.11063601645489
C            3.62587271139234        4.47992626210067       -5.65326301997632
H            3.35546357824564       -1.17431462452373        0.55537047946855
H            1.89724927842149        2.17758770921567       -0.06169826425630
H            2.48339447793068        3.71229383376996       -1.91642718285481
H            4.71364060472691       -0.70203091830508       -1.46890621427043
H            6.45298071337946       -0.91937508713209       -3.48537762970594
H            7.85900457900370       -0.60180415897381       -5.48722412511068
H            7.70384501723361        1.46430234199178       -6.80624480656199
H            6.13833678171788        3.25411695820606       -6.15190993344917
H            4.44407713528075        5.29451360401873       -2.49238072791318
H            3.74909034849258        7.51136335477132       -3.30398334004957
H            1.12520937423894        7.43464190876277       -6.77816986571719
H            0.43760891638336        9.64681101676679       -7.60766984173655
H            4.32386169198168       11.86396723154775       -8.19318855282877
H            5.29733492616323       13.72244967481171       -9.48983709882177
H            3.98130284181990       15.74341560892954       -9.95467041753206
H            1.66375093839035       15.94613019518958       -9.13467216122599
H           -0.73255990050086       15.60671574758903       -7.99983130538132
H           -3.06364984102264       15.96553688167129       -7.22325792558837
H           -2.71749784684967       12.59439103507257       -5.72186185254090
H           -0.71190585493256       11.14320293775864       -5.82392831074952
H            3.78576567653601       11.41883892462113       -5.68977318780716
H            4.49619693963423        9.20839229188560       -4.87344905622746
H            2.90996683342411        5.83572184353254       -7.12814519158216
H            3.58436018980269        3.61977828770536       -6.29823923825029
