98
 energy: -21.271733538831 gnorm: 0.000935941732 xtb: 6.5.0 (97a52f5)
O            2.54078238320458        1.48445471249563       -0.98992420288884
P            3.07062966718166        0.73781201138220        0.26022163763317
C            2.35747269465774        1.45106969881160        1.73882194734623
C            3.05782675480144        1.46918007282855        2.92337637252758
C            2.46880955403823        1.99517481355413        4.05320318950411
C            1.16814282838593        2.50025073417267        4.00241970915474
N            0.54618795045176        3.04832926744020        5.18186834216934
C            0.18286982332149        4.42427077384447        5.23858043524721
C            0.45964527459826        5.28715264419459        4.19135270567092
C            0.10473412902604        6.62121874310122        4.25413373080529
C           -0.52975278570054        7.11152184564908        5.37300493641782
C           -0.80326466933277        6.27083886475047        6.43330733870837
C           -0.45217067212882        4.92840610144011        6.39067965118729
O           -0.73222725243440        4.12488026721678        7.49423807719091
C           -0.37489744278805        2.77906686997120        7.43353395017210
C           -0.65793124040689        1.96143670012340        8.51904489330386
C           -0.34215945967961        0.61758768247243        8.49858543397758
C            0.25956916415382        0.06983824859760        7.38821889655293
C            0.55254247459506        0.86789498513947        6.29869762659695
C            0.25436129693218        2.22033247785331        6.30369446435718
C            0.47876541462982        2.46704016230642        2.78891475410529
C            1.07640878062968        1.94265755726839        1.66188333947257
C            2.58591802673525       -0.98497460315551        0.18965018746583
C            2.70071279354779       -1.78470272983171        1.30336329790538
C            2.32893048922576       -3.10985343263475        1.22975878421786
C            1.83425731635405       -3.64008153953847        0.03699657898354
N            1.44416710856558       -5.02604333233329       -0.04062729982303
C            0.34671019703649       -5.51663941312054        0.72314628250032
C           -0.40995919055468       -4.67477500854023        1.52093978099610
C           -1.47742380438950       -5.15697190139157        2.25438986103426
C           -1.80419479271511       -6.49285879547750        2.19486677630915
C           -1.06898625010176       -7.34675206578201        1.39696858909891
C            0.00496209770878       -6.88129402988981        0.65055667072183
O            0.70603155750570       -7.77948812754852       -0.15226824372306
C            1.77273015456763       -7.29234963879405       -0.90522550345307
C            2.48186671403702       -8.17309262581427       -1.71051183438982
C            3.55739101754605       -7.74170670618374       -2.46101159512471
C            3.94240916679820       -6.42088068982288       -2.41387263674737
C            3.24789653211494       -5.52816642592820       -1.61998966579456
C            2.15976742514680       -5.93821934546381       -0.86795659832768
C            1.72332546081509       -2.80610646730792       -1.07714250655708
C            2.10194217180945       -1.48212765044272       -0.99646674852304
C            4.85552583330409        0.87589147931682        0.34086404015755
C            5.65185429327074       -0.24013741186024        0.45938681891113
C            7.02009094129623       -0.09633763071233        0.53896915370450
C            7.60005193111255        1.17268219725427        0.50407983466703
N            9.03068133688528        1.32748874374285        0.59778069913135
C            9.78013812956749        1.84408671327583       -0.49742746334583
C            9.16799086847339        2.19085295200274       -1.69016606592496
C            9.90292088401343        2.68529003923068       -2.75086537419286
C           11.26617913784495        2.83509380461234       -2.63145859140858
C           11.89697276314077        2.48480754225487       -1.45439192283894
C           11.17680937256032        1.98407836752718       -0.37846125246777
O           11.86132955660503        1.62923078540904        0.78268418032439
C           11.12248740759850        1.13110157198898        1.85405783899206
C           11.78673622209014        0.78792810701615        3.02374283292370
C           11.09669590318498        0.30710869759086        4.11843043574396
C            9.72877072580234        0.16498981957221        4.05967130179048
C            9.04976426459389        0.49848034316273        2.90310432947364
C            9.72401132963196        0.97335282820121        1.79067599257539
C            6.77123821078743        2.28908911661677        0.38092878976357
C            5.40274109009145        2.13641101957483        0.29814721064266
H            4.06161483858153        1.07665299971810        2.95607070433328
H            3.00423570075933        2.03098548665172        4.98563309469244
H            0.96420495838043        4.90773632965313        3.32118334629681
H            0.32514984549342        7.27599031965170        3.42723159913593
H           -0.80886138265989        8.15098984818635        5.42461818523101
H           -1.29050935283793        6.64211551209508        7.31721029010790
H           -1.13562312286500        2.40074545919083        9.37660619344255
H           -0.57134990706472       -0.00249848017926        9.34943408723524
H            0.50139043485294       -0.98001651682239        7.36729120357626
H            1.01205299455418        0.43687411512987        5.42771119229769
H           -0.52591362249280        2.84945575639356        2.75059704796934
H            0.55826731513636        1.91508195459778        0.71554571071388
H            3.07776837266665       -1.36681281200192        2.22309268595288
H            2.42080960134872       -3.75393513005982        2.08643468188656
H           -0.16219021016835       -3.62938332605129        1.55935515187059
H           -2.05368527440619       -4.48716310510109        2.87116062683062
H           -2.63522476960770       -6.87204544332922        2.76646504532305
H           -1.31748135736519       -8.39121373455756        1.33501234190711
H            2.17429397959716       -9.20339634374006       -1.73252625728914
H            4.09638902659745       -8.43985679541389       -3.07996173948725
H            4.78465152642774       -6.08260387892645       -2.99463862196753
H            3.55603373016718       -4.49920968301213       -1.57564360923099
H            1.32924043838120       -3.21008201908769       -1.99289585953253
H            2.01628860066794       -0.82172349271627       -1.84563895698396
H            5.19957997708381       -1.21775868551023        0.48592024675662
H            7.65922141223965       -0.95770859833253        0.62161438298501
H            8.10493402387182        2.06414703404519       -1.78792475925843
H            9.40824950577068        2.95214749739633       -3.67016263502233
H           11.84169932067799        3.22097586719606       -3.45663035828945
H           12.96215367256418        2.58965450605742       -1.34918917520734
H           12.85469330450504        0.90981152719387        3.05763263838005
H           11.62928720306849        0.04768783259683        5.01851994771521
H            9.18748575761207       -0.20418400512510        4.91507866818855
H            7.98027647298604        0.39793415697018        2.86147281124780
H            7.21655353198914        3.26801162981916        0.36017916646516
H            4.75234439163173        2.99179442642430        0.19783672725555
