77
 energy: -16.544691709042 gnorm: 0.000804642881 xtb: 6.5.0 (97a52f5)
O            2.53402049518216        0.55593191996862       -1.23317980725957
P            2.76560296742994        0.59702811552826        0.29846012740931
C            1.81462161124126        1.93936470062599        1.01045358954335
C            1.61179299323188        2.01933987646997        2.36743689753268
C            0.89270068760362        3.08011983665711        2.88648703810836
C            0.38693812596472        4.04835372016014        2.04098483766716
C            0.59704708119244        3.96034035325865        0.67865596978217
C            1.31765110725891        2.89784968188445        0.16253801401707
C            2.23378411265339       -0.95046532811184        1.02700163599497
C            2.70576306040659       -1.34896058111010        2.25690001118083
C            2.27807687454605       -2.54448068438491        2.79361180861917
C            1.37339455037316       -3.34906621058726        2.09850547707585
N            0.93847784518720       -4.60913448416956        2.64895117600087
C            0.12357567588685       -4.65378967434866        3.81604661148938
C           -0.27925560126606       -3.49519555725355        4.45863966246480
C           -1.07352039863269       -3.54707210481238        5.58847712538019
C           -1.47992382967135       -4.76410369999817        6.08750396270714
C           -1.09803545582448       -5.93026646284352        5.45465821568485
C           -0.30150423166370       -5.89952641860148        4.31814216170690
O            0.04617492992397       -7.10330621866086        3.70710844508280
C            0.85772665360373       -7.05444705859061        2.57486708337435
C            1.23276411888682       -8.24413848562946        1.96564110779449
C            2.05181887930794       -8.24729630939666        0.85407464095775
C            2.50996595247502       -7.05713596843683        0.33554412781861
C            2.14352764301489       -5.86168996496398        0.92419881411412
C            1.31598882862509       -5.83711184199479        2.03425877085151
C            0.90980255594391       -2.92152748208066        0.85313539493378
C            1.34198465850744       -1.72371478288506        0.32298122379343
C            4.50721624017732        0.83294570441732        0.64233341147631
C            5.36997158043250       -0.20465377889869        0.37648051331693
C            6.71674761352827       -0.05508100786434        0.63309360588813
C            7.20648434993300        1.14345238323537        1.15422127623252
N            8.61427763465376        1.30278450088101        1.42642043540343
C            9.41281509483258        2.17865652286618        0.63759690236217
C            8.87209128904531        2.88527547151450       -0.42331332828218
C            9.65459795695948        3.72802250989837       -1.18970278152888
C           10.99377164526740        3.87106833070573       -0.90398875345241
C           11.55326865847559        3.16917646721980        0.14526986458796
C           10.78462249712828        2.31682202695319        0.92610232191507
O           11.39601689798086        1.62109271136635        1.96816720777402
C           10.60891816439729        0.76659534955365        2.73885152305525
C           11.19826339480982        0.07175926290369        3.78617234469140
C           10.45650808837154       -0.77676999508947        4.58390587157378
C            9.11038781939794       -0.94166037088479        4.34670175034734
C            8.50553188514857       -0.26047374713028        3.30743211788684
C            9.23338893729973        0.58977222323500        2.49214551717614
C            6.31202099962080        2.18491823730231        1.40645964944424
C            4.96690383244458        2.02630078227749        1.15017846638013
H            2.01289959721765        1.25592161076397        3.01398394590879
H            0.72762174336349        3.15028465155352        3.94893294852205
H           -0.17435546497118        4.87448545487973        2.44570315983028
H            0.20160039498739        4.71504124810777        0.01925044568453
H            1.49490818248390        2.80251856337821       -0.89793940526345
H            3.41576287039126       -0.73080639586288        2.78275907839594
H            2.64498030911129       -2.88037516510368        3.74746869022007
H            0.02968328257632       -2.54444708549332        4.06317446595880
H           -1.37468275046168       -2.63535226049325        6.07754471819137
H           -2.09893589619803       -4.80758615090421        6.96844384404810
H           -1.41488278811913       -6.88747243603384        5.82878479722950
H            0.87207531784457       -9.16656521758492        2.38473977088817
H            2.33436708151475       -9.18068929891212        0.39575898589304
H            3.15274251115488       -7.05678023967825       -0.52931541862193
H            2.50531274632722       -4.93261754589999        0.52196172062887
H            0.21071580850485       -3.53938811185526        0.31768858522151
H            1.00194418777469       -1.38385816586070       -0.64327930146337
H            4.98302759255334       -1.12406480895613       -0.03491698114097
H            7.40788789783642       -0.85318616518218        0.42680968094897
H            7.82805695884573        2.76618367191422       -0.65094605168821
H            9.21606625132263        4.27123322552975       -2.01052135483107
H           11.60615413791457        4.52750500553665       -1.49997621642004
H           12.59903988842488        3.26756809921287        0.37606644644352
H           12.24955565831313        0.21307991758967        3.96336441594512
H           10.93085859830331       -1.30704079822220        5.39318262611012
H            8.52888329159795       -1.60080628854786        4.96997942715330
H            7.45340177881424       -0.38470843590437        3.12430677346770
H            6.68985225724330        3.10826194665225        1.80884774447057
H            4.27135208414334        2.82717870520871        1.34163041783848
