65
 energy: -13.876972120011 gnorm: 0.000710094818 xtb: 6.5.0 (97a52f5)
O            2.56958292886986        0.30668215162684       -1.11944584927928
P            2.88257775979092       -0.04624703977124        0.35725624899920
C            2.03563836307211        1.10088204800565        1.44209594508179
C            2.48797577805409        1.32554878651215        2.72068291212690
C            1.80871440134219        2.21220648503776        3.53619160983085
C            0.68536179465549        2.86177758345674        3.06197095076449
C            0.23876195856184        2.62893948982807        1.77559706159908
C            0.92010679854297        1.74096129526368        0.96167252481539
C            2.31211293899135       -1.70849184598313        0.71081949550635
C            2.26255087464453       -2.17906906298027        2.00135302336668
C            1.83192938785320       -3.47167812590618        2.23824094029285
C            1.45646818404968       -4.27726369685484        1.18060824544320
C            1.50953501600220       -3.79544291889043       -0.11296922424863
C            1.94206372174532       -2.50186650176081       -0.34686771060866
C            4.64720850281190        0.07382197367678        0.64663349307712
C            5.39686907652118       -1.04523906466386        0.92113111794794
C            6.75312882939424       -0.92084459522029        1.14561677018787
C            7.37000263972377        0.32987844023533        1.09860834694785
C            8.82145961030087        0.46968378815690        1.35008154303226
C            9.73852173466762       -0.43392180758605        0.76972892457083
C           11.08846786356587       -0.33066953548350        0.98260231701786
C           11.56492671738923        0.69688262802766        1.79703305965512
C           10.66635701036770        1.59959387889675        2.39115392370205
C            9.29772691482550        1.48900935600663        2.16293842706129
C           11.44583290703345        2.52023646693762        3.18508210254257
C           11.09033149722967        3.60986255997358        3.98097248615069
C           12.08461832380014        4.31134724292461        4.61906870543641
C           13.42646926836276        3.94809311863174        4.47592668830722
C           13.79106307328516        2.87721200952290        3.69739649106172
C           12.79439702735712        2.14987812852032        3.04808314134995
N           12.87405081328011        1.03060998496343        2.19298040392857
C           14.08130405527795        0.35945584713770        1.79469301808388
C           14.34709295619781        0.12127942486521        0.45132855003461
C           15.50447425803226       -0.52092461524291        0.07104219368036
C           16.41210611255725       -0.93450475670691        1.02616843648212
C           16.15870956881658       -0.70425796946130        2.36433611198306
C           15.00246686404074       -0.06141659911346        2.74660558185646
C            6.58588386986904        1.44782043802763        0.81279650465616
C            5.23011729320209        1.31624904789389        0.58494366454894
H            3.37156100868530        0.81689367961781        3.07218071806683
H            2.15728762528348        2.39695785255048        4.53897569168093
H            0.15710563116402        3.55419686480677        3.69676905869475
H           -0.63546413597299        3.13818253370777        1.40482434155769
H            0.59881416330499        1.54872859808584       -0.05067420961564
H            2.55770703082368       -1.53746699119448        2.81578944248322
H            1.78886832255176       -3.84866600687021        3.24681835972462
H            1.11914566844321       -5.28400017636516        1.36545609898804
H            1.21483010895950       -4.42300375778894       -0.93778092424160
H            1.99008464961567       -2.09849362992885       -1.34680593241608
H            4.91836093864547       -2.01026729826841        0.96032582459068
H            7.34514020814566       -1.79024009379458        1.37313889376945
H            9.35713652036056       -1.21456339688854        0.13451318902833
H           11.78019750417210       -1.02500636589544        0.54072355815213
H            8.61797502548933        2.18023166841233        2.62567806096740
H           10.05537449544997        3.88456810358870        4.08294257925413
H           11.82731646089952        5.15504959348118        5.23808308219779
H           14.18639004303653        4.51871062313885        4.98397825965748
H           14.82221487011531        2.59873180894752        3.57425608605729
H           13.64013167351786        0.45907493704571       -0.28613514966844
H           15.70280858951341       -0.69924478296665       -0.97320829072943
H           17.31751582577056       -1.43703743159998        0.72768388703749
H           16.86616163417636       -1.02794938758874        3.11011493486141
H           14.79069072393902        0.11225287832864        3.78721573716943
H            7.05148201022311        2.41648170559662        0.75870598043343
H            4.62036670965551        2.17629443338015        0.35478254514620
