81
 energy: -17.079152998420 gnorm: 0.000777259057 xtb: 6.5.0 (97a52f5)
O            2.05777013405246        0.37757759055756       -0.67909935657181
P            2.67043459839273       -0.53849147535343        0.41107214177311
C            2.20846689259268        0.07663787949654        2.02934903757147
C            2.95340971183255       -0.23700785251210        3.14110032669721
C            2.55821784462843        0.23525625256460        4.37913392946758
C            1.42310966423150        1.01495626989762        4.48832183694909
C            0.68151823854316        1.32473517758150        3.36493604458489
C            1.07825402160708        0.84964550307583        2.12737490962822
C            2.04214470680620       -2.20524579780069        0.20902586259372
C            1.75208525408417       -2.99245054698463        1.29826787434706
C            1.21408343443915       -4.25139293490009        1.10516807974710
C            0.97776230367563       -4.70900041100851       -0.17656535743377
C            1.28560203066429       -3.91676927761226       -1.26528097188105
C            1.81902086440993       -2.65508363625930       -1.06900416920621
C            4.45419173890675       -0.50536932314578        0.27634937106790
C            5.23088160999895       -1.58258872048964        0.63198843210950
C            6.60447346852195       -1.48241501703995        0.55662608396566
C            7.21269692665164       -0.30188341026307        0.12722616603636
C            8.66419443659729       -0.14248623315280        0.06219350421247
N            9.24663677502324        1.03559904856797       -0.06164260874871
C           10.59124222097314        0.80950517925925       -0.08675760396290
C           11.66091894646303        1.70960238645732       -0.19361134523441
C           12.93986631529489        1.21679058847509       -0.20042740015866
C           13.18936315701160       -0.15951911510603       -0.10323681485415
C           12.16003012950523       -1.05824739229738        0.00436707801898
C           10.85224968580580       -0.56995234907898        0.01654785437158
N            9.61108413784015       -1.18670573558620        0.11161717765982
C            9.38212127033534       -2.60890449202202        0.14739935722097
C            9.46637036232546       -3.30411586603364        1.34888252332794
C            9.12513798532954       -4.63925306567213        1.40110690172698
C            8.71890232529509       -5.27998356010779        0.25368841186397
P            8.15111048863344       -6.97580324043543        0.29001982036420
O            8.69757080562359       -7.74203395994222       -0.94093822569260
C            8.70279815692919       -7.77456055219581        1.79494931139191
C            9.81805275323628       -8.57264051820926        1.73305114713331
C           10.28022593873015       -9.18979771237106        2.88195203674780
C            9.61797115876760       -8.99544807947728        4.07845405283571
C            8.49717394588600       -8.18941717768729        4.13031219709798
C            8.03667083388696       -7.57464045075334        2.98039786496156
C            6.35999834832644       -6.96326402029002        0.25003466659288
C            5.71422851027441       -8.13946815377780       -0.04063425882584
C            4.33165184450589       -8.16423015163126       -0.08462041334836
C            3.61714838102019       -7.00831374390037        0.15996894086222
C            4.27568280180755       -5.82922875921724        0.44880092694353
C            5.65619977967823       -5.80785311244707        0.49738068497255
C            8.65598457364091       -4.61749518696316       -0.94847723720739
C            8.98931725721214       -3.27948612235766       -1.00545424432772
C            6.39908154193601        0.77281130405599       -0.22582741148276
C            5.02466296946507        0.66867757725188       -0.15154696329655
H            3.83924331712200       -0.84268867241812        3.03699906076426
H            3.13664159071783       -0.00347694442648        5.25631003155838
H            1.11626412418657        1.38497474567616        5.45280453692073
H           -0.20244665850586        1.93486760561193        3.45009366043970
H            0.52089908823584        1.08123710762547        1.23256348376509
H            1.92584172224913       -2.61360437855081        2.29224629739093
H            0.97366359253106       -4.87080772694898        1.95357929217456
H            0.54438482613192       -5.68381751166966       -0.32845934756438
H            1.10062732231624       -4.27415968276273       -2.26481737388791
H            2.04090133853350       -2.00626056096661       -1.90271830114854
H            4.75948179841510       -2.49147898829197        0.96886555074168
H            7.21546941145325       -2.31666766315466        0.84360445359910
H           11.45992333007019        2.76309450471129       -0.26995035467190
H           13.77018401700446        1.89836822165763       -0.28366984004078
H           14.20654614495363       -0.51462902213000       -0.11440780674983
H           12.33608311477244       -2.11642526320171        0.07854412461754
H            9.77013478360629       -2.77706373226797        2.23629633767604
H            9.15966352041965       -5.18088612421880        2.33213167275930
H           10.31238384007415       -8.71211835020879        0.78369410332272
H           11.15296255091534       -9.82034579391955        2.84147085951281
H            9.97607545874336       -9.47571743240386        4.97423392938209
H            7.98140142225088       -8.04021216322108        5.06449115313656
H            7.16182582374003       -6.94433782029759        3.00130287850028
H            6.29536242107009       -9.02618851812288       -0.24286557078670
H            3.81608365894769       -9.08158017839479       -0.31630304494223
H            2.54123263230102       -7.02592981497407        0.11939424343951
H            3.71423668163310       -4.92742533554075        0.62458711404032
H            6.18624132383221       -4.89533795016585        0.71714962897343
H            8.33305803990368       -5.15049102423365       -1.82986337629274
H            8.92576528257410       -2.73385492972729       -1.93040771778547
H            6.86204196307388        1.68774304034898       -0.55199803199867
H            4.38594123536397        1.49498275350427       -0.42517181946201
