143
 energy: -28.678120774401 gnorm: 0.000393492419 xtb: 6.5.0 (97a52f5)
C            1.12766347875286        0.06642383352797       -0.47625611312624
C            2.66561275332591        0.14504806820082       -0.50389726870479
C            3.22857839539161       -1.03387251524610        0.31331823418813
C            3.16747588797849        0.01329573262418       -1.95384124777172
C            3.11185337890287        1.49929675045628        0.06742287451969
C            3.91103271920882        1.60671357715289        1.19981045561721
C            4.28040979252961        2.83618226954450        1.69654149438183
C            3.86677847053705        4.01230517969518        1.07492273758200
C            4.24627107924479        5.33959231522884        1.61948144887398
C            5.60694479557405        5.69427331295883        1.75423511004509
C            6.66553006678079        4.75750779263238        1.30523301507684
C            7.70363230221310        4.37616244416863        2.15898803684936
C            8.66002390959162        3.48092987411804        1.75166370399850
C            8.62023493136467        2.92169708802124        0.47484390154047
N            9.60622088367114        1.97602336013886        0.05621813115454
C           10.24460045512500        1.11753761110614        1.01421705804321
C           11.60125830644326        0.82246132672762        0.90644065321864
C           12.21670410756227        0.00178335923370        1.82455372796369
C           11.48857172652513       -0.54124101488336        2.86530873858440
C           10.14072931964907       -0.26213874058229        2.98293764451193
C            9.52291057366455        0.55805771631387        2.06583364404442
C            9.97621347956048        1.88092342821498       -1.32853855476310
C           10.20088790356519        0.63971215856252       -1.91850494168557
C           10.55634660165930        0.54735211488724       -3.24532627965706
C           10.69679219786165        1.69197400718968       -4.00590566830299
C           10.48170986134254        2.93079200866366       -3.43364492346642
C           10.12547206854308        3.02582613150418       -2.10724211883485
C            7.59171142953359        3.30790261974305       -0.38356010508929
C            6.63942241704040        4.20851866235225        0.02032799468913
C            5.94726634912413        6.94446850392860        2.30270867794020
C            7.29360028027861        7.29439988173371        2.44759293987774
N            8.41366926091781        7.58349323657660        2.56843535757411
C            4.94643756306428        7.84737769910770        2.70557802504429
C            5.30995657900989        9.15206141852840        3.31028547954019
C            6.17659875253725       10.03406225835074        2.66020550008404
C            6.47342384163337       11.25890310820048        3.20193098080430
C            5.91502364633652       11.66007282877568        4.41518770184133
N            6.21345153648339       12.94263088099628        4.97029856650758
C            6.51142177146032       14.05125711445768        4.10724494781972
C            7.51337620791132       14.95924404271624        4.43975870329877
C            7.80247845494309       16.02007320389568        3.61145879505020
C            7.09533979684139       16.19490036410149        2.43777914989087
C            6.09570761683633       15.30486006933920        2.09602217467613
C            5.80473729959747       14.24313894650705        2.92257683172869
C            6.22751335852664       13.13263111156900        6.39357143585831
C            5.73594881476247       14.30732834413625        6.95716482716639
C            5.74861230673585       14.49041848013324        8.32164529236214
C            6.25394974815546       13.50540571676920        9.14794443462492
C            6.74937884412304       12.33639079407667        8.60364621868799
C            6.73820320513832       12.15118146365296        7.23948616575028
C            5.05766271437569       10.77840712179025        5.07182040849376
C            4.76655967449604        9.55052906710888        4.53473789117215
C            3.58667049089540        7.49969339134525        2.54543573953399
C            2.52102115495357        8.45852570377816        2.92933211700898
C            2.45268631168499        9.72241346201145        2.34765985493155
C            1.47250479117676       10.61529962831322        2.71523473871773
C            0.51760689313866       10.28630086312921        3.66906256759616
C           -0.55241531709134       11.31712636492335        4.05899097580752
C            0.13641414888925       12.56087046363108        4.65086787387599
C           -1.35857528352589       11.71419759527165        2.80828211534223
C           -1.53170308527643       10.75594796317692        5.10826094904169
C            0.58299824784745        9.02286646633507        4.24498439804006
C            1.56420266126416        8.12685190215009        3.88605294738769
C            3.24003324446140        6.24348685300820        2.01212312082019
C            1.81087622421856        5.86692635908383        1.86904377548268
C            0.95239745875001        6.60031966736774        1.05410852472246
C           -0.37102064470510        6.24503999786407        0.92598261452761
C           -0.89172764994347        5.14612496673304        1.59778198844656
C           -2.37503499143439        4.78458783847202        1.42830963430804
C           -3.24204709600501        5.96254331115211        1.91023593401790
C           -2.66292606451815        4.49971903378727       -0.05738616112332
C           -2.75569465978305        3.53392871795809        2.24428146804323
C           -0.03311589081986        4.41404884437744        2.40938377678265
C            1.29041569598050        4.76655255059309        2.54572883564147
C            3.07219404845540        3.90518648695268       -0.06418488485098
C            2.70286459442523        2.67318802248399       -0.55251524372153
H            0.77895626968871       -0.89347026762906       -0.85652022002822
H            0.67968341931497        0.84927382547221       -1.08698759014239
H            0.75477384057255        0.18243815771234        0.54120348496276
H            2.90599102716086       -1.98546088760661       -0.10872690836911
H            2.88130413811914       -0.99730592234547        1.34553314194309
H            4.31826957061495       -1.02616016553897        0.31311487530747
H            2.88328243444759       -0.94904031911235       -2.37895745679472
H            4.25365840286128        0.09246782651049       -1.99338103286331
H            2.75188644396126        0.79347763456121       -2.59014495047121
H            4.24939063990471        0.71919858361033        1.70404605800250
H            4.89640306890711        2.90397182943244        2.57681709148205
H            7.74573640521019        4.80049067614751        3.14733150516267
H            9.46456237310132        3.21015583067125        2.41263591521749
H           12.16362029243698        1.25585082629278        0.09786027510254
H           13.26842794877413       -0.21519285826028        1.73230190018801
H           11.97167034624044       -1.18207357080009        3.58474699280964
H            9.57180147793142       -0.68747949306629        3.79356939558459
H            8.47072142748737        0.76965990170974        2.14470322464366
H           10.08371353964083       -0.24738323944062       -1.32092874079357
H           10.72440490554109       -0.41940083320066       -3.69123670568017
H           10.97527806318741        1.61873196091491       -5.04452648786886
H           10.59488482683978        3.82433909790877       -4.02552697475104
H            9.96841995094525        3.98786490294045       -1.65132826314958
H            7.54599686010749        2.87552356474165       -1.36764422024196
H            5.84973960131886        4.49736233649006       -0.65143502951788
H            6.61328800622181        9.73661939155610        1.72244348430672
H            7.15602801026991       11.92188612845566        2.69997752207976
H            8.06612301780327       14.81090468694321        5.35088478358525
H            8.58330133403961       16.71349534192331        3.87809174166623
H            7.32354588950811       17.02472844279671        1.78920139036807
H            5.54288310485218       15.44157535149699        1.18102561536127
H            5.02072567312535       13.55156347210806        2.66746447361337
H            5.33804715279356       15.06742575373708        6.30771175366076
H            5.36304168913020       15.40325310637103        8.74567281014398
H            6.26321244168256       13.64948013898445       10.21606456871762
H            7.14738848309447       11.56904703814205        9.24743171415684
H            7.13545813188227       11.24899743890261        6.80783524911950
H            4.61164042141123       11.08291931378220        6.00231755442077
H            4.10061565849024        8.87996430975529        5.04966428186242
H            3.18658886260713        9.99442647879865        1.60856511427707
H            1.44811792945487       11.58914180021240        2.25795242530769
H            0.80311367790663       13.02679982739622        3.92640123633312
H            0.72899592807160       12.29283292143806        5.52526739487674
H           -0.59798653894484       13.30595570857564        4.95577878820231
H           -0.72091805400189       12.17288652349385        2.05384003229284
H           -2.14205854103798       12.42859235508433        3.06003886323251
H           -1.83033412670850       10.83946540123072        2.36116523835818
H           -1.01079900526327       10.48445881006947        6.02605583349037
H           -2.04975715169490        9.87517486309355        4.72948598620273
H           -2.28775254273137       11.49718832934394        5.36652346523228
H           -0.13988991214727        8.73293078081924        4.98648419752677
H            1.60470729733566        7.15364815053635        4.34437034359262
H            1.34017820927054        7.45459859144762        0.52630008645309
H           -1.01532529089264        6.83074866655402        0.29358780959495
H           -3.04887487615024        6.86171284804487        1.32665512174110
H           -3.03350208002378        6.19133439325745        2.95511001378933
H           -4.30262360196320        5.72866432810507        1.82078951145525
H           -2.46347759437919        5.37441026982073       -0.67493701658921
H           -3.70524526572060        4.21838148337555       -0.20565542985112
H           -2.03808639360311        3.68403371973079       -0.42055634874285
H           -2.58817614382100        3.69392325844621        3.30905899516690
H           -2.17537168197871        2.66752219555539        1.92781832369102
H           -3.80959617628810        3.29102426988488        2.11005745630008
H           -0.40027900676511        3.55593296967784        2.94348755677118
H            1.94394842775920        4.19021120251303        3.17785772894144
H            2.74422568866063        4.80507918447779       -0.55552924958941
H            2.08225547516977        2.61829877316815       -1.42997925042531
