81
 energy: -15.506516914210 gnorm: 0.002469162946 xtb: 6.5.0 (97a52f5)
O            2.43408621161003        0.81898727257183       -0.41381971852628
P            3.29586965424666       -0.45354007918858       -0.63282425440752
C            2.70613838194519       -1.73495383940233        0.47699708062123
C            3.50227627144208       -2.77149543419392        0.90513736624258
C            2.97325371487976       -3.74291131649320        1.73274937715218
C            1.65038975335453       -3.66903204004016        2.12325552260593
C            0.85657323354841       -2.62315903504823        1.69457263694492
C            1.39083786321359       -1.64998451223910        0.86795629302858
C            3.08627226943268       -0.99315942173479       -2.33485746815912
C            2.02814255629622       -0.44006482947347       -3.01479447855132
C            1.77109499162394       -0.82284222165359       -4.31994213594143
C            2.57940870644523       -1.76160165029259       -4.92992972591472
C            3.64161959061555       -2.31327997748909       -4.24127778854047
C            3.89559713462642       -1.92719793495834       -2.93890961767740
C            5.01208623996926       -0.05313531212614       -0.28720714419387
C            6.03702586175762       -0.97428504294101       -0.44078325828968
C            7.35256083500279       -0.59908802497677       -0.15666600085990
C            7.64866363732910        0.70328502452536        0.27299715606364
C            9.01723492557066        1.11652393778481        0.55977407493754
N            9.31656740694568        2.22259396915106        1.21388309395747
C           10.67614645493847        2.26427140735296        1.30942873843836
C           11.51493450353967        3.21621742742875        1.90643494314337
C           12.87107310428738        3.02348274116826        1.85963819955924
C           13.42446558968866        1.90077176334508        1.22814932270998
C           12.62525946781796        0.95745244606844        0.63646133302624
C           11.24158357665758        1.13895969302682        0.67907822557505
N           10.17346581340703        0.39905179654702        0.18593921509356
C           10.28046417222278       -0.81630408583004       -0.58969942437954
C           10.67959482012279       -1.98209715627961        0.06643018193972
C           10.62507178238800       -3.28854449667112       -0.39973584425124
C            9.88558474982013       -3.78240880395286       -1.42689148087913
C            8.63528860152125       -3.43159682150593       -2.09752361034842
P            7.44958815174762       -2.85316515456031       -1.04325559509818
O            8.42882796099316       -3.05393537009496       -3.38964125206893
C            1.83144505110123       -7.26064779375927        1.96325248259166
C            2.20584713912461       -6.98363034186778        0.70947064565305
C            1.37222198469318       -6.47482834696739       -0.27022170990595
C            0.03120743083607       -6.16477257659129       -0.12484955213774
C           -0.66746233997215       -6.31592996338566        1.00482457897909
C            5.67134296247271       -6.24030328729733        1.79040813779962
C            2.09018466534975       -5.66141388402506       -3.76209436872176
C            1.03521282163882       -5.31378026594178       -4.44887129630817
C            0.12118373725483       -4.34073630204010       -4.08019941487034
C            0.16620804959385       -3.57687125557158       -2.92754405667982
C            1.11398337095480       -3.67591504047390       -1.99185784496245
C            4.49182702397257       -4.86103808229820       -1.48530384110627
C            9.99811922322855       -0.76634661289959       -1.90488880589720
C            6.59144602007309        1.59928778262645        0.42835761790546
C            5.28972107989150        1.22187497296646        0.14869166040219
H            4.53366622759667       -2.82167747352652        0.60043155230137
H            3.59293629072023       -4.56023344754909        2.06447099458662
H            1.23664275665070       -4.43157604228940        2.76229435509949
H           -0.17571842904258       -2.56358264040473        2.00019070845040
H            0.79292497738647       -0.81790272251161        0.52546993821402
H            1.41022529748518        0.29167499711506       -2.51603604042246
H            0.93925441692464       -0.39404182701411       -4.85408877496616
H            2.37828941821256       -2.06760979063383       -5.94334008486367
H            4.26973810971236       -3.04954973112851       -4.71564629744801
H            4.72105425389319       -2.35802932229760       -2.40062129343768
H            5.86774927793377       -2.02028238571394       -0.80112831956153
H            8.14702463714080       -1.37390030576330       -0.29432110517990
H           11.08208142751708        4.07534841783400        2.38686893728893
H           13.52552347621680        3.74783400616946        2.31560386342848
H           14.49486431583743        1.77911212777541        1.20833440563462
H           13.03669629829979        0.09322104645445        0.14652907325628
H           11.08520198582868       -1.82895768824776        1.05448228360251
H           11.18238258704072       -4.02462914230751        0.16158242136406
H            2.47324693629327       -7.64145886569277        2.70310628485798
H            3.23685006640902       -7.16082536454264        0.44457049767700
H            1.80999443535021       -6.29495756446339       -1.23990683946562
H           -0.48239551666249       -5.76736371543531       -0.98598971335483
H           -1.68520113537956       -6.07685112168044        1.11086139787414
H            7.08919772968496       -4.11639157561902        0.44703162130366
H            0.87095662038119       -5.82730999791367       -5.38380852622967
H           -0.70083725292144       -4.15824892848014       -4.75576754448581
H           -0.61380100522690       -2.84567464737077       -2.77877832305926
H            1.15230793463394       -3.08743014854410       -1.12394903346878
H            4.64217248322459       -5.26705850289314       -0.55830074165188
H            9.69909371793409        0.12018138848771       -2.37868499893783
H            6.80847494814343        2.59682104221119        0.76834868325521
H            4.47316647952704        1.91839598375664        0.26292247008836
