81
 energy: -14.362759050115 gnorm: 0.044846324506 xtb: 6.5.0 (97a52f5)
O            1.90063538709208       -0.38497678263809       -0.93523578597749
P            2.78783852463552       -0.86976514915401        0.23870846223867
C            1.85952365305942       -0.71049221782923        1.76482153238043
C            2.49225588920821       -0.51664399595211        2.96817731470533
C            1.74255407363041       -0.41539860582480        4.12510205917566
C            0.36625185326256       -0.50989270685497        4.06344383409400
C           -0.26238811327793       -0.70280370803153        2.84885340135571
C            0.49149227423285       -0.80312635353485        1.69272690835924
C            3.21515752964613       -2.60001733533213        0.01622505559708
C            2.52931425889253       -3.56118588389947        0.72011451413816
C            2.84624792491279       -4.89581856703784        0.54650504456893
C            3.84213645432997       -5.25501880700821       -0.33981857238001
C            4.51647069825395       -4.28504449000120       -1.05458872564549
C            4.19902384316886       -2.95136003069497       -0.87465544138821
C            4.25382906334322        0.15604260463670        0.31942100016070
C            5.39809876587290       -0.25724459655349        0.95823957107618
C            6.49661129180102        0.57523582560922        0.99641434757529
C            6.46352832458658        1.83840799455481        0.38901230249314
N            7.60016502477557        2.68230549958293        0.38590399159899
C            7.69973146793066        3.75162296714180       -0.24119372266938
C            8.94940154492901        4.34433358241289       -0.07905456514620
C            9.37844351615222        5.56189161014122       -0.64138907896290
C           10.62955663914813        6.03578115785301       -0.34013564067299
C           11.48837675230349        5.33616306440625        0.51967625751716
C           11.10213963674978        4.14475936309189        1.07873164833212
C            9.84443214253415        3.66311913417057        0.76250114173550
P            8.97951038185321        2.22188273061500        1.21201756102208
O            9.06938694158130        1.74216036321291        2.71170645214527
C            9.40506015931580        0.48428049750758        3.01503403934753
C            9.58041646612217       -0.05362255104149        4.29659197529630
C            9.51879631643451        0.62395658805142        5.46101325998147
C            9.35065137772666        2.01124348639337        5.85787459420131
C            8.84276467384319        2.82032841998011        5.07341999596771
C            9.77020425250256        2.38043429413435        7.13651459546629
C            5.88237095813876       -0.57761228003772        4.21485692712209
C            5.24582409559985       -1.18108638617659        5.14884378462571
C            4.58493106168712       -2.32496090205632        5.09060159778912
C            4.41672897208808       -3.14881052813781        4.07051896125495
C            4.87082467023282       -3.03893315960146        2.87798418907746
C            8.05537004815506       -2.51445173144376        1.80341024558912
N            7.93757044334109        2.39881198604490       -3.02521039569194
C            8.99637116960794        1.83056870110345       -2.64558119665581
C           10.24291769324855        2.28382222991594       -2.65969333042997
C           11.35065405231386        1.66508076606048       -2.20137896555968
C           11.34662475682823        0.45385089059156       -1.63139627831512
C            5.61178707468581       -0.49105461231327       -2.92803468134373
C            4.38775296351214       -0.37406784484319       -3.12225353582162
C            5.28166663713471        2.22481901212768       -0.26260632165159
C            4.18587489387845        1.38607372840124       -0.28791725367263
H            3.56658666188938       -0.45044940689452        3.00205513995588
H            2.23377919795037       -0.26838256438458        5.07264405921507
H           -0.21854592328930       -0.43188511023487        4.96520257561213
H           -1.33643976573846       -0.77224438003022        2.79962945499375
H            0.02396113577601       -0.94215078744844        0.72980686555619
H            1.74964969625095       -3.26560606757078        1.40299565738716
H            2.31641159783643       -5.65237564988567        1.10135931883792
H            4.08925877229756       -6.29471161415396       -0.47837778988902
H            5.28633968166482       -4.56570790409351       -1.75431735293641
H            4.70251277470915       -2.18360655859762       -1.43734134824228
H            5.42617069997030       -1.22583502079488        1.42765247807879
H            7.39822901781151        0.25966092014819        1.48568927715759
H            8.71762030992926        6.09623460296894       -1.29940389611312
H           10.95916503781165        6.96789104794407       -0.76818033578343
H           12.46218711018007        5.73973212553999        0.74231796017946
H           11.74393099310059        3.58651765815579        1.73743823430119
H            9.55368349193029       -0.19226325936031        2.17675992987552
H            9.79612372439035       -1.10698768407550        4.36799863866934
H            8.11026776014817        4.35386929477975        6.10439316883754
H            9.67731613175116        4.00418650762379        3.85145350153326
H            6.62315922212349        5.04543582339214       -0.54158197738854
H            7.43152213402732        3.34644212653103        4.04938190933597
H            6.56610577813777        1.33733044242813        6.21928034833015
H            7.63276251032422       -2.85827141741774        4.61198793300148
H            6.38447282812715       -4.14253976499181        0.86841163747871
H            1.54494852454477       -3.33215006793889        3.97723427780025
H           12.28742786839071        2.18987013716951       -2.30092270978886
H           12.20876494506910       -0.03278741139644       -1.27875760352380
H           11.99408724539561        0.98220036805042        1.73688455918183
H            9.77485779881627        1.55598404424882       -0.15049936593105
H            5.25168578585419        3.17989912482344       -0.75577404819163
H            3.27653876469881        1.66875318265499       -0.79663357674553
