68
 energy: -13.970746827966 gnorm: 0.000890675128 xtb: 6.5.0 (97a52f5)
O            2.35509542298361        0.63351757857206        0.85192290797260
P            3.03849972845479        0.05042989965013       -0.41186782121298
C            2.53841787499779       -1.65701533041662       -0.63041703261980
C            1.49065488935536       -2.12569985762911        0.12288816959521
C            1.08094257718959       -3.44001662323031       -0.01878483176545
C            1.72874293798633       -4.26741274041738       -0.91554998752416
C            2.78271697049967       -3.78670586612660       -1.66850665281531
C            3.19012618607457       -2.47278263484004       -1.52469051308377
C            2.53029539532304        0.98453820669939       -1.85539671155606
C            3.12045166952591        0.78008701629154       -3.07962492788388
C            2.69680214564246        1.51681904839102       -4.17083484515166
C            1.68513893994764        2.44608452277442       -4.02430096898164
C            1.09613808181849        2.64265014316400       -2.79077785344183
C            1.52370168932487        1.90539489269122       -1.70028033357109
C            4.81895482441091        0.11622103199096       -0.22332673866895
C            5.43539627489036       -0.86569663913012        0.51475956894298
C            6.81049145787407       -0.83973375350914        0.66767693152095
C            7.54855039321362        0.16870884569008        0.08510053706061
Si           9.40150677169667        0.13948766841996        0.18819601704456
C            9.91770548959696       -0.82550570944692        1.68931917779545
C           10.20515434214375       -0.17885842133846        2.87189431937407
C           10.53451686816316       -0.90695296120690        3.99808385776240
C           10.57526012181254       -2.28550516055308        3.93831869042627
C           10.28930851873340       -2.93429423666304        2.75391983790461
C            9.96066670091272       -2.20211837877629        1.62990939727547
C           10.07465909751839       -0.69232410958682       -1.33025709576622
C           11.38819031577196       -1.10953317412812       -1.35701328372818
C           11.89614648556856       -1.72498165058213       -2.48424856657008
C           11.08583683575565       -1.92374718691122       -3.58417074568749
C            9.76955089939027       -1.50832685690218       -3.55700165953518
C            9.26607991420910       -0.89208321896679       -2.42856843590020
C           10.03691968716161        1.88234117585756        0.29888420855282
C           11.13947768230239        2.27384196383909       -0.42949543962899
C           11.61896337553440        3.56423357602323       -0.32223105968938
C           10.99211848327999        4.46333732545132        0.51689444514190
C            9.88642169650615        4.07310099237675        1.24523437324875
C            9.40942379477714        2.78188862389351        1.13394561999557
C            6.91943704950489        1.15804185432691       -0.64177683419692
C            5.54446161935180        1.13400990602555       -0.79500757572373
H            1.00816680150005       -1.45984909797374        0.82201397275473
H            0.26099319123008       -3.81574382231457        0.57074082075719
H            1.41210874239548       -5.29158851904955       -1.02683381259562
H            3.28877166104096       -4.43409596773177       -2.36571205064690
H            4.01795337850727       -2.08576726900956       -2.09700134708722
H            3.91136421767257        0.05423344660405       -3.17798874616774
H            3.15570021621948        1.36509025756709       -5.13368148578154
H            1.35444366212186        3.01928595945288       -4.87495073429665
H            0.30674405735977        3.36691929645764       -2.67611255743574
H            1.08394948794363        2.04134157793325       -0.72424276371477
H            4.84220613898739       -1.64562250032447        0.96603729986700
H            7.31299355180299       -1.60272418432199        1.23653427793121
H           10.17037950378338        0.89621696789178        2.90659834418116
H           10.75708674795099       -0.39922701132303        4.92222173320598
H           10.83061319993404       -2.85545502679130        4.81680984392458
H           10.32169397019401       -4.01041029543830        2.70577976051161
H            9.73674420387492       -2.69663131754798        0.69964831034776
H           12.00817501946972       -0.95512370349150       -0.48982144427576
H           12.92336965951499       -2.05036829256993       -2.50393329450217
H           11.48070235175747       -2.40503467207186       -4.46401444681823
H            9.13529404751918       -1.66536977173008       -4.41409207449211
H            8.24037472237220       -0.56673034861584       -2.39367131513597
H           11.61845630099893        1.56506507712935       -1.08255252576934
H           12.48105196885898        3.86821007008811       -0.89289355393284
H           11.36547735658668        5.47071259563919        0.60264235431182
H            9.39497495243941        4.77451759919959        1.89925650473727
H            8.54345700900557        2.46773258778786        1.69213961587145
H            7.50747430050187        1.94204808862152       -1.08782620764588
H            5.03782636923649        1.90284851404884       -1.35567262294553
