67
 energy: -13.997017263175 gnorm: 0.000543843162 xtb: 6.5.0 (97a52f5)
O            2.32196892991128       -0.95183797900760        0.40098256108437
P            3.01831799997676        0.35521934460502       -0.05562838122738
C            2.44396573732961        0.80606919007665       -1.69156333100952
C            3.22861741955004        1.54587229825308       -2.54384491072693
C            2.73934291932071        1.89516485465076       -3.78869600363377
C            1.47027256238627        1.50028273207228       -4.16480862409573
C            0.68906111556124        0.75748781254523       -3.30148131525093
C            1.18096688894912        0.41013799336111       -2.05570705770068
C            2.63328029840509        1.67694132251845        1.09158674475931
C            2.34227345039886        1.33600080567598        2.38896114129404
C            2.07073566657033        2.33054610964624        3.31179584576003
C            2.09897406624646        3.65497687234462        2.92119878025727
C            2.39483129508880        3.98797236136059        1.61388301823019
C            2.66370019314525        2.99218994339952        0.69343420772848
C            4.79089418709833        0.11535107093568       -0.08732304680024
C            5.28404683614750       -1.17671357517301       -0.24037801456774
C            6.63701657608857       -1.41223325991526       -0.28021970422891
C            7.51987109399737       -0.32973801995636       -0.16565728393093
O            8.90448544174022       -0.29024531658707       -0.17577022845701
C            9.26960893802925        1.03788075013181       -0.02878952970007
C           10.53635231813030        1.63461904585803        0.02636650552466
C           10.62783759218661        2.99545690095941        0.18010263253644
C            9.48002274953427        3.77987785378814        0.27618753418236
P            9.57432668257051        5.55368862373947        0.50343499264786
O            8.43957500656476        6.24025333225100       -0.29928929674492
C            9.38655611170241        5.92949197053121        2.24479737766386
C            8.77102627323162        7.10765786248233        2.58755497788429
C            8.62271296749883        7.43663166979192        3.92321547223269
C            9.09619595086671        6.57944047407457        4.89724355427783
C            9.71479382109816        5.39656470599158        4.54184355104349
C            9.86129636513942        5.06991652765787        3.20641232946261
C           11.16513895023092        6.14815473152371       -0.06647529484030
C           12.27168834624202        6.09315861346909        0.74691135077778
C           13.49077833615581        6.53489961996232        0.26723675067437
C           13.58682811171856        7.02509342631845       -1.02054716852598
C           12.46916705292531        7.07582143862645       -1.83042410789141
C           11.25065229543211        6.63188645318072       -1.34828797090516
C            8.22968039893328        3.23766500565137        0.22936560564740
C            8.11965037594761        1.85012740053992        0.07564471261068
C            6.99735651203536        0.97271814598485       -0.01092091104717
C            5.61708029287419        1.19548622461338        0.02888394385639
H            4.21872464378770        1.84246958209641       -2.23812857849275
H            3.34779749308804        2.47356759416690       -4.46407636778138
H            1.08927955034675        1.77148452575393       -5.13562025936944
H           -0.29998317470302        0.44775780242511       -3.59570568287969
H            0.59421448914000       -0.17580511113242       -1.36459438567661
H            2.32307162605257        0.29307093811778        2.66643414936372
H            1.83816657892917        2.07097202737077        4.33108066298184
H            1.88794864281354        4.43091183316747        3.63858724489059
H            2.41657024883271        5.02171716546528        1.31096122815053
H            2.89224708264458        3.23534799101468       -0.33158177067030
H            4.57986693947162       -1.99050002616899       -0.31625122013589
H            7.03359403731746       -2.40464064270180       -0.39536964494332
H           11.41210727003903        1.01644742721335       -0.05362819737975
H           11.59233873415904        3.47350182877949        0.22257824717004
H            8.40307115834837        7.75563196847735        1.80666252754491
H            8.13801488702891        8.35792846596258        4.20076917764191
H            8.98087184139809        6.83376002884688        5.93803697646699
H           10.08171046312177        4.72828864592682        5.30317989643966
H           10.33686085904979        4.14834079825383        2.91114708480202
H           12.17863383013275        5.70988770245554        1.75021675677199
H           14.36360121645030        6.49681021190543        0.89783294187888
H           14.53682271463228        7.36994308386410       -1.39447848731668
H           12.54415867969577        7.45920862072113       -2.83448409896838
H           10.36070983178831        6.66357990576625       -1.95834421650980
H            7.35450604336185        3.86278915317646        0.29909639595980
H            5.22460618590697        2.18958314096641        0.15623821112910
