67
 energy: -12.310727938038 gnorm: 0.002936486424 xtb: 6.5.0 (97a52f5)
O            3.57428335938115        1.86886350227727       -0.45699984664330
P            3.96919853263902        0.42432999056301       -0.05878496389111
C            3.42094756705716        0.07974389856002        1.61119097159157
C            4.12920117202171       -0.77561881971798        2.42057060371522
C            3.69331144042246       -1.01272453611028        3.71048694432329
C            2.54814501030745       -0.39541040021746        4.17314048989366
C            1.83799414672356        0.45610539179791        3.34971944584984
C            2.27799773862777        0.69376888221971        2.05976769806316
C            3.22032582231618       -0.75199503710903       -1.18244396163068
C            2.87653563301382       -2.01553162164379       -0.76445768879548
C            2.32556085714472       -2.90446469054026       -1.66866392040599
C            2.12657612411993       -2.51771741232801       -2.97964467900139
C            2.47500799290314       -1.24575923395548       -3.39002560540111
C            3.02754983483193       -0.35828808949097       -2.48336514464790
C            5.74673787748551        0.19785429622678       -0.16577210481086
C            6.26126531631486       -1.08574007215874       -0.34430931367413
C            7.61758105789815       -1.29250063469458       -0.38772516566787
C            8.44935979730704       -0.19291283430540       -0.24034738933677
S           10.10622340577979        0.01096906584139       -0.20442730897764
C           10.25073405421589        1.65640864649205        0.05398463102894
C           11.48337154184262        2.28737475140163        0.16987303850704
C           11.72231316200258        3.60824589983146        0.46956427066791
C           10.81632354267166        4.55031977624508        0.88607783695355
C            9.51708338469937        4.52971205964374        1.39962197452597
P            9.48975950211268        4.03230543127962        2.99689421988014
O            8.30157633723496        7.66927066209611        0.82942502839444
C            6.20394649126725        5.13952850854966        2.14280991149187
C            5.34816247659828        4.37931291289334        1.51542205479851
C            4.89089400054643        3.15530006588267        1.97082307368487
C            5.26562002473131        2.52569385922685        3.14219841751920
C            6.13239329064040        3.02347829165232        4.02818439310749
C            7.35675914903082       -0.22525468029001        3.18875837087147
C            8.10635120734114        7.02770317792173        4.71652967310147
C            8.85656409397912        6.07515154875456        4.20057984943897
C           10.26230930375543        6.01888523957791        4.21394878675552
C           11.12652645201355        6.95060956908196        4.78583289921236
C           10.72585831998629        8.06102883004071        5.41532790340155
C            9.21955472909626        2.94392067745533        5.59009979557839
C            8.96056662597865        2.11473156204206        0.09482687733052
C            7.95706153724174        1.10901659411666       -0.06534690223239
C            6.55744882499125        1.28835612418340       -0.03974094487245
H            5.02622809826438       -1.24258978127523        2.04820470525527
H            4.24781068434845       -1.67617232631029        4.35334697292229
H            2.20690614469172       -0.57964815110920        5.17854741222564
H            0.94418185668489        0.93657897995877        3.71130026661548
H            1.74448216831773        1.36200525044784        1.40144182548605
H            3.03537311274548       -2.29986836390081        0.26323888807483
H            2.05248333352037       -3.89697502737985       -1.35030217902091
H            1.69844779881453       -3.21089154263144       -3.68500552688536
H            2.31797631510813       -0.94391348242635       -4.41227239258654
H            3.30267572005408        0.64362894663856       -2.77644985171000
H            5.58125428311697       -1.91502994286900       -0.45049542512453
H            8.04633199310628       -2.26996202930100       -0.51909027562914
H           12.33297062234906        1.64858857425629       -0.01541211584429
H           12.74279380821890        3.95097726663046        0.39736581156630
H           10.84130793581947        2.48804052940293        2.95993156584969
H            4.97643161901610        4.73496715384327        0.56691022825238
H            4.19644245645183        2.63372339027417        1.33256299259977
H            4.83088067725878        1.56144525627523        3.35083002777530
H            6.42672582562463        2.53735646529870        4.91184162611119
H            8.44824810828742        2.27942503790622        2.61554931838930
H            8.33618740079356        5.22549540278549        3.68594076350657
H           10.71071478123239        5.12705960637075        3.69978216386296
H           12.18826538427004        6.76475898793597        4.71115815991525
H           11.37399600044236        8.76874075837454        5.84636009961087
H            9.30550629108619        3.35202351255392        4.61402337926224
H            6.14105683147060        2.27220438060845        0.07916733606559
