81
 energy: -17.086914356937 gnorm: 0.000648995956 xtb: 6.5.0 (97a52f5)
O            2.76156788503002       -1.83942448423946        1.41669375217976
P            3.32043277276526       -0.59697055050553        0.67473925957162
C            3.28095492221892       -0.89084894525964       -1.09527445820533
C            4.05022075128501       -0.16468974785471       -1.97368991583388
C            3.93512788804556       -0.39499202466068       -3.33140157065272
C            3.06180637828583       -1.35825065652612       -3.79645977399750
C            2.29867295950906       -2.08928229751197       -2.90764444661125
C            2.40745644662280       -1.84805616755899       -1.54923991725481
C            2.31958881771102        0.83674894433909        1.06595137871119
C            1.66120856720438        0.84452119841160        2.27067098829942
C            0.90003188092496        1.94382413773839        2.62709730092946
C            0.81286680267660        3.02398816669025        1.77073363714668
C            1.48073271508877        3.00798200642541        0.56173119265963
C            2.23912735694976        1.90758884299776        0.20787138515706
C            4.99566009594334       -0.28885017975338        1.21618853301132
C            5.61471668490591       -1.24373207190179        1.98502573184365
C            6.91777606536315       -1.04142211633684        2.40712288269495
C            7.58605957598609        0.10529665580324        2.03850381251787
C            6.95893765901858        1.07932259630532        1.26195901178887
C            7.65358667445536        2.29996409179261        0.85614166224620
N            7.05085306381357        3.45738772615129        0.66249670962760
C            8.01992817053726        4.33929662088544        0.28365113888882
C            7.92649667915844        5.69549585307841       -0.05904866118774
C            9.05986130915700        6.35538677026415       -0.45743311939443
C           10.29598552765165        5.69814595015777       -0.53187438376498
C           10.41231609498638        4.37292013561309       -0.20227332373605
C            9.26923939875995        3.69014315865833        0.21824458344915
N            9.03393348034050        2.36966290442885        0.58418952085183
C            9.94510339474840        1.26790539385236        0.42968606044969
C           11.18007691319928        1.25388935280224        1.06678260703247
C           12.04032753604801        0.18890239816423        0.90087626215831
C           11.67592937905234       -0.87590661345716        0.09346799403734
C           10.45497431521927       -0.85958622651089       -0.53571907469940
P            9.98693718649402       -2.22447788744389       -1.59137107664341
O           11.25246109617700       -2.83794309671426       -2.24245609081014
C            9.14698369112561       -3.47231921247476       -0.61924766007282
C            9.62547270431541       -4.75809653675351       -0.66762878554860
C            8.97956830461320       -5.75475577439143        0.04231237329551
C            7.85722287267086       -5.44847691799792        0.78676374552826
C            7.38231183875684       -4.15223478424021        0.82575051689569
C            8.03301926331027       -3.15702175872931        0.11994077872739
C            8.88319886180563       -1.62267273991761       -2.87015287589843
C            9.30437425085280       -0.57003961221907       -3.64546290134918
C            8.48084340105952       -0.08798743975048       -4.64722556951504
C            7.24854828315455       -0.67206656153627       -4.86471491526134
C            6.83704001224882       -1.73449764036126       -4.08437890252422
C            7.65866387545538       -2.21037303034032       -3.08049244372025
C            9.59234348346880        0.19270373129159       -0.37968602412625
C            5.63784499708570        0.87132526040256        0.87040744112719
H            4.73900330835287        0.57509254030305       -1.60267058929122
H            4.52745614704039        0.17764212896428       -4.02549449343793
H            2.97501321342743       -1.53871104380223       -4.85535830369793
H            1.61671410089960       -2.84087637755925       -3.26900011350598
H            1.81822881700086       -2.40127114169550       -0.83346581892205
H            1.74342710870425       -0.01408379162385        2.91982382110077
H            0.37832260180414        1.95569348650271        3.56968733668355
H            0.22171820917221        3.88162068625783        2.04697799490529
H            1.41202956971792        3.85187490034028       -0.10469417456049
H            2.76267969271308        1.87935108482054       -0.73366070267832
H            5.06571562326764       -2.13166717702645        2.25806410145789
H            7.40968567829733       -1.78271271645609        3.01485129161571
H            8.60178635648672        0.26555638231748        2.35397090031271
H            6.97280298731414        6.18906349288254       -0.00916311804442
H            9.00052454267539        7.39778084110249       -0.72387282345227
H           11.16646959197104        6.24406901356199       -0.85592250181714
H           11.35257089396863        3.85522856105239       -0.26393967859326
H           11.44939030450494        2.08422963320450        1.69548379432689
H           12.99720945760584        0.18544838225184        1.39601756195841
H           12.33868556008661       -1.71262050534795       -0.06308069493566
H           10.49913612103670       -4.96980962721591       -1.26503960105989
H            9.34956896438081       -6.76622806263653        0.00996850129471
H            7.34975167658499       -6.22330505405606        1.33752070352433
H            6.50317070941356       -3.91759316956865        1.40172664549306
H            7.67686768895309       -2.13996255871198        0.14030372600894
H           10.27636534587454       -0.13606062657240       -3.46820643810690
H            8.80384892326121        0.73822239062256       -5.25880378450154
H            6.60915196440681       -0.30108713905038       -5.64875106337236
H            5.87720042092174       -2.19282769122619       -4.25567605126146
H            7.35168815265395       -3.04147533368197       -2.46725802062149
H            8.64428542812639        0.19988137317792       -0.89030604748438
H            5.12891855391667        1.63152029763333        0.30318327078788
