105
 energy: -23.313202140717 gnorm: 0.000874860784 xtb: 6.5.0 (97a52f5)
O            1.02476127095733        0.02001010391148       -2.18659682745964
P            2.55998166813173        0.19040274637327       -2.20037280080832
C            3.05972535856073        1.13850445428655       -3.63094235121406
C            4.04418674737469        0.68704405388619       -4.47757182926444
C            4.43042689906069        1.46939281176031       -5.55007450652076
C            3.82581897187068        2.69347164034775       -5.76136420950859
C            2.83733568806673        3.13803197075763       -4.90479075299845
C            2.45391190838522        2.35419608687241       -3.83049012704898
C            3.34026941815483       -1.41787995396583       -2.24894102702818
C            4.56702393647951       -1.60364174638781       -1.65954260810376
C            5.17563911029251       -2.84325505726543       -1.72814586572129
C            4.54568251905729       -3.88106382321161       -2.38787527119815
C            3.31175453022163       -3.68362359309024       -2.97746513395461
C            2.70585782792121       -2.44144610557996       -2.90780583523950
N            3.11717048310635        1.00044092653566       -0.76856985224226
C            4.34936835141193        1.61417928441327       -0.55373248074834
C            5.35923707438671        1.99914783392923       -1.44103824451010
C            6.49761813221069        2.57176874573495       -0.93620294936338
C            6.65695572879714        2.77193265587311        0.44008649892181
C            5.67944240646569        2.39955785759581        1.32949361966874
C            4.51142608342120        1.81536054715959        0.83457500981804
C            3.33975262500243        1.27148700650930        1.47872168945014
C            2.95905102109313        1.14917567384892        2.81474180102802
C            1.77061611888871        0.51302790491880        3.12108038902573
N            1.35298497967000        0.39042517838605        4.49182973747715
C            0.09733808912476        0.76268695076658        5.01052910324335
C           -1.01753487591195        1.32852705528013        4.39203160510751
C           -2.12481662832801        1.60838532135599        5.15409361113105
C           -2.14287974530704        1.33821324255831        6.52598704179514
C           -1.05147162836582        0.78804520168751        7.15313426024112
C            0.08155665397410        0.49818678610540        6.39112903978566
C            1.36989382053761       -0.05111692524922        6.73601805969333
C            1.90693028358684       -0.48664739550771        7.94532443413534
C            3.20301666530767       -0.96639387689744        7.97267732459292
N            3.77952048993826       -1.40795348281137        9.21380914264406
C            4.41915555593755       -2.64144707077456        9.44545232876024
C            4.66307352554373       -3.71990216587283        8.59543168774015
C            5.30895656373690       -4.82276497101589        9.09724329133968
C            5.71493833870589       -4.87496703184334       10.43431700226478
C            5.47575429085520       -3.82526854419950       11.28759298886670
C            4.81982522839109       -2.69726304535881       10.79197562062782
C            4.41173786950143       -1.46069752867359       11.41241288155635
C            4.54010196367519       -0.97836031405658       12.71337997925431
C            4.04091092935993        0.27390075581415       13.01866869260999
N            4.14917539309580        0.78680323027544       14.35838947868063
C            4.70552613446402        2.02552558794921       14.73169793038848
C            5.29368869505538        3.03121345649283       13.96515868848263
C            5.76857918992592        4.15214078950041       14.60003904285100
C            5.67100887459384        4.29081277758872       15.98816923388796
C            5.09950111890029        3.30769083582845       16.75879577022963
C            4.61255061501853        2.16099474119346       16.12792909789398
C            3.97711460284854        0.96815770285785       16.63260536389569
C            3.62358448189918        0.56211885750482       17.92108622663176
C            3.00528718275848       -0.65399299603759       18.08190230497338
C            2.73016420840801       -1.47304596800958       16.98227647199412
C            3.07169517399077       -1.08785376200531       15.70950678286433
C            3.70439054162645        0.14175768310952       15.52855726310508
C            3.41871762814134        1.04400515184863       12.01934568605121
C            3.28545736834836        0.58091310918605       10.73626409195659
C            3.77857925723782       -0.68662015448314       10.42506107450390
C            3.95734860114745       -1.01515639669636        6.78596617357647
C            3.43867859088440       -0.59563349939410        5.58845199626312
C            2.13300912496467       -0.10425263338120        5.55696544577096
C            0.96210760206658       -0.01016867534271        2.09252599408155
C            1.31764075842089        0.10337624298816        0.77596157496556
C            2.51443691857325        0.75329489821259        0.45723865769940
H            4.50868572924076       -0.26861475259692       -4.29547114879604
H            5.20100193934947        1.12374675008149       -6.21952609944871
H            4.12493611106987        3.30302002174691       -6.59831955078836
H            2.36568662578993        4.09264907979518       -5.07053439010916
H            1.68597942419369        2.68141708830623       -3.14586168391319
H            5.03963274182094       -0.78146999314918       -1.14793269183730
H            6.13795648400852       -2.99799979133262       -1.26831117206446
H            5.01856517573497       -4.84798659453694       -2.44242475437407
H            2.82111754095593       -4.49419895574433       -3.49073743334288
H            1.74069453298222       -2.26279269867357       -3.35639661881658
H            5.22645091028228        1.84934576405588       -2.49634815569157
H            7.28254751805117        2.87524253940926       -1.60936289652872
H            7.56406631298906        3.22379285502068        0.80660203554967
H            5.79998944489648        2.54175849379777        2.38895478952599
H            3.57553602373762        1.55200472412819        3.59595874494512
H           -0.99210251012618        1.54363005865535        3.33883319125044
H           -2.99373335497477        2.04423951655069        4.68899941965691
H           -3.02576109655097        1.56842296762874        7.09932417225433
H           -1.05454313235034        0.58299921678082        8.20912578432778
H            1.31983750282276       -0.45858397094387        8.84380620933543
H            4.33875029851091       -3.67710386016043        7.57122960779542
H            5.50515176479327       -5.66295198779406        8.45158922367245
H            6.22018036495615       -5.75351225879284       10.80043569065498
H            5.78021566686525       -3.85916318757572       12.31875867275583
H            5.02624485929971       -1.56713374188996       13.46826790467640
H            5.37162821805649        2.91330841906210       12.89924370408054
H            6.22498968947767        4.93775866706283       14.02056213016789
H            6.05196266284103        5.18188821991542       16.45936175833951
H            5.02304276595618        3.40538846132115       17.82730023415898
H            3.83529449034706        1.19963294331566       18.76124067506929
H            2.72528511407721       -0.98173967493157       19.06948154481222
H            2.24065060113538       -2.42046014897927       17.13745098881252
H            2.85659221539476       -1.70784257108658       14.85773505039883
H            3.03493890919217        2.01271670755732       12.28734052494750
H            2.81475604660624        1.17353487625262        9.97265983281086
H            4.96690981031894       -1.38316327748372        6.83817569684637
H            4.01417866680713       -0.64163538804550        4.68146139764549
H            0.05040285928286       -0.51223459373282        2.36472330275120
H            0.70319276054880       -0.27731106720948       -0.02021421010658
