45
 energy: -9.500160084435 gnorm: 0.000529657965 xtb: 6.5.0 (97a52f5)
O            4.29291260343072        0.72221064597504       -1.30831788770021
P            3.64132005958331        0.11739689703508       -0.04518142494837
C            2.45242507569564        1.27318161724332        0.62558021235316
C            1.88872505286703        2.20983286284975       -0.20427457561248
C            0.95131766203782        3.09191575394672        0.30297713545803
C            0.59080525500262        3.02056407665188        1.63480731706107
C            1.16383474589508        2.07331620367436        2.46094447459909
C            2.10123886735186        1.19445224802148        1.95110806508566
C            2.82633900095664       -1.42322718650074       -0.44023891263195
C            3.59289515846775       -2.43142593389549       -0.96995173317657
C            3.00959296008048       -3.65478154862964       -1.24935104625108
C            1.66665853001429       -3.85030465943727       -0.99194543211301
C            0.90467987217738       -2.82915005881316       -0.45833619694972
C            1.48932766219653       -1.60774525062311       -0.18029681161825
N            4.82206666589102       -0.18343778859711        1.19111134672682
C            5.87077269740763        0.70216303848966        1.39156012634754
C            6.35433062406769        1.74327036634927        0.59287925694064
C            7.41352476915265        2.48398930901349        1.04865230391180
C            8.00363819225472        2.21071399484646        2.28886043390111
C            7.54028342468173        1.19606169314848        3.09046346137484
C            6.46150615047759        0.42826092058784        2.64468176781083
C            5.70341510119804       -0.64835653197670        3.23693324745101
C            5.78388666063879       -1.29782939242744        4.47092113588072
C            4.85743776422519       -2.26663851934265        4.76706860806187
C            3.84603433969928       -2.60233536983203        3.85964274250522
C            3.74941495737554       -1.97629082059353        2.64465412484906
C            4.68461483587949       -0.98813760366765        2.32037874529879
H            2.19131697928201        2.24691851041308       -1.23940007308057
H            0.50495616541182        3.83234512258465       -0.34002803516119
H           -0.13800939106804        3.70835436862537        2.03111807640681
H            0.88277425704401        2.01875772930554        3.49974458892984
H            2.56361612370150        0.45170004830083        2.58009077790636
H            4.64157391796578       -2.25675313470314       -1.15724441142721
H            3.60373245937578       -4.45215612800534       -1.66438500961237
H            1.21125604579238       -4.80251655741054       -1.20915199767048
H           -0.14280825931025       -2.98344256665025       -0.25796457724322
H            0.91058773645640       -0.80236781390936        0.24216112992096
H            5.89246483475550        1.92494682258411       -0.36117645992355
H            7.80006670972593        3.28678914416311        0.44271704997670
H            8.83522422866981        2.81042810559474        2.62028825133692
H            7.98453659060550        0.98984459352271        4.04810624652047
H            6.55790981205568       -1.02942094926104        5.16793031644318
H            4.90780102267443       -2.77758625570030        5.71442698272117
H            3.13418955082853       -3.36815398269106        4.12052539066372
H            2.98221252730945       -2.23631602022478        1.93913126866808
