41
 energy: -8.441291166194 gnorm: 0.000377263310 xtb: 6.5.0 (97a52f5)
O            1.63325367524718       -0.65071499961091        0.05411317162893
P            2.91824752820342        0.08715494471312        0.50326035005967
C            3.21794772617475       -0.10718284171541        2.25617221616194
C            2.22576861253716       -0.64906871401011        3.03232108542237
C            2.41688105680978       -0.76862339223965        4.39684406890250
C            3.60102824447671       -0.33929282090222        4.96350000688216
C            4.59181538346928        0.20928093417953        4.17267827429240
C            4.39687565857848        0.32888714649948        2.80915080447830
C            2.87865505125633        1.83279499790094        0.12406205876543
C            1.79686911814532        2.63443744193342        0.61791705242837
C            1.22539007357316        3.71976192836621        0.00328626864898
C            0.14913314987351        4.28360385455533        0.72939832460871
C           -0.11164583583613        3.64013418169644        1.89014943821169
S            0.96634564392058        2.31471181752359        2.12986234331843
C            3.98911035295432        2.08856613249006       -0.64228126165369
C            4.43201084943335        3.43217447954372       -1.01719454471752
C            4.05089931626596        4.61744707907715       -0.45044525823289
C            4.59611210457401        5.76944295513920       -1.08210808682941
C            5.41875337498704        5.47991383655468       -2.11568499256446
S            5.58153375589976        3.77158959767878       -2.28405530009556
C            4.76701918580525        0.85910611371971       -1.04199090424692
C            5.85567438094866        0.80502371309031       -1.92260864684785
C            6.46061031794935       -0.40061119457574       -2.20489489594191
C            6.00264122391857       -1.57436073909027       -1.63165577233406
C            4.92348501011616       -1.54967549695542       -0.76765500867792
C            4.33205949408413       -0.34565004031318       -0.48958229505811
H            1.30669848313903       -0.96685804705426        2.56380316335788
H            1.64154384569722       -1.19059137063089        5.01468266503289
H            3.75095658071137       -0.42956467198579        6.02678914237958
H            5.51374614239304        0.54708673645537        4.61654285789374
H            5.15359568789301        0.76459715257368        2.17598584649412
H            1.54037888334315        4.07707175206705       -0.96471434267738
H           -0.41339121587235        5.13805446290882        0.38227276839817
H           -0.88807666181222        3.90209806845089        2.58376412664728
H            3.39929155348658        4.67560398660320        0.40682561334795
H            4.36486908114481        6.77771115693964       -0.76962020191774
H            5.92913400002835        6.19601480254553       -2.73159888477275
H            6.21954960006833        1.70446736873189       -2.37879084864413
H            7.29833045091934       -0.43074807586219       -2.88209860966851
H            6.48170192704264       -2.51089174085529       -1.86510979126694
H            4.53569718845091       -2.45190249613750       -0.32579200122143
