38
 energy: -8.004055995005 gnorm: 0.000507322465 xtb: 6.5.0 (97a52f5)
O            2.78250173910000       -1.04072559540275       -0.33559093808888
P            3.26746050577157        0.39109725514278       -0.01425452908104
C            2.86737187438198        0.86550965743903        1.66296427635015
C            3.08643931224565        2.15285469055115        2.08938015702687
C            2.78767124110264        2.49475036759893        3.39494569274690
C            2.27796180092940        1.54304807272600        4.25598411218954
C            2.06604261998699        0.25078027543384        3.81800660898670
C            2.36377636929913       -0.08887068731486        2.51091662032113
C            5.03552797028187        0.61574038851308       -0.30853940568677
C            5.13265320926847        1.60696195913555       -1.20784281196562
C            3.86751821674037        2.18177240420367       -1.72658717825804
C            3.75616609167550        3.18942316011680       -2.68694479288378
C            2.50417921852212        3.60453267088745       -3.08806694092461
C            1.36254840672700        3.03190782419612       -2.55217714812320
C            1.45862904144399        2.03291930280488       -1.60033192854423
C            2.70257690535409        1.62271929971092       -1.19940222088562
S            6.88266109880362        1.97207433971905       -1.54723115698144
O            7.17494642401254        3.31550553630646       -0.93004377910833
O            7.21415726553655        1.60079676791084       -2.96777101896515
C            7.39948768120554        0.66499647492233       -0.40828053974160
C            8.67037503753044        0.26003356379434       -0.08844333275836
C            8.83618374818829       -0.77178845940326        0.81677675693824
C            7.73562924499896       -1.38707146917907        1.38929476474320
C            6.45841826259200       -0.98023669888649        1.06744421088286
C            6.28841492851001        0.05954700374023        0.15932877466098
H            3.49214588173998        2.88071556735541        1.40464812053967
H            2.95347979515876        3.50226185521615        3.73896918306130
H            2.04513100609655        1.80976942135187        5.27347415243399
H            1.67062750182530       -0.49188678321231        4.49097470422484
H            2.20717270825584       -1.09061304995401        2.14076319138320
H            4.64948244717129        3.62067819911813       -3.10433668360223
H            2.41378532856816        4.37977983044211       -3.83086711489184
H            0.39194887479590        3.36443699427030       -2.88103002354001
H            0.58104236494464        1.57299992028118       -1.17917769090713
H            9.51561643084824        0.74691991664753       -0.54451617553922
H            9.82914158434942       -1.09954535034569        1.07672803116430
H            7.87827865269899       -2.19311688677606        2.08979686153488
H            5.59384920934209       -1.45574773906348        1.49622919128330
