78
 energy: -15.675650975558 gnorm: 0.000820342257 xtb: 6.5.0 (97a52f5)
O            2.18813589892174        1.53006084947968        1.47356461241969
S            3.37530815852077        0.71400897846064        1.11149734749420
O            4.62874120398083        1.14381210465486        1.78952590241542
O            3.18275790009557       -0.73830407876408        0.87353250763755
C            3.66898320209466        1.31845318772420       -0.60674341625568
C            5.13851276825136        1.19694446529987       -0.97986673497914
C            5.55051734460505        2.11884399927226       -2.13611123089231
C            7.04237421472427        2.44781074230256       -2.13543122256766
N            7.33253831124617        3.69863551387557       -2.86084901152331
C            7.06484333987962        4.95520553945118       -2.38631220784855
C            6.44913546766137        5.40213657635555       -1.20158760165484
C            5.96279729018044        4.64370962713764       -0.17489782978715
C            5.24071125978281        5.12484125880709        0.95991502607353
C            4.99714473885863        6.48986102811412        1.19205711555336
C            4.26824083451032        6.89892140055396        2.27465618621735
C            3.72992883284421        5.97536179301273        3.18856584600615
C            2.94715193027120        6.40861457278076        4.34639187169872
C            2.14015297183318        7.57319440031617        4.28876600658139
C            1.77511010889441        8.30042378330495        5.51343169309848
C            2.65556232636901        8.38298997853839        6.59963517163345
C            2.31088358796048        9.06872752369606        7.74026958558184
C            1.08255065207373        9.69400726403967        7.82954131059762
C            0.19883881301355        9.63132483172839        6.76969303521205
C            0.53800616125548        8.94672826588707        5.62645147442894
C            1.62704147163113        8.06685634102258        3.00069638974437
C            1.24515386520582        7.17956522030710        1.98591331559484
C            0.76728483748445        7.64336822198077        0.78338945771384
C            0.65233995545224        9.00167287706635        0.56021208565381
C            1.01605511404934        9.89631935517654        1.54810825411173
C            1.49484318825050        9.43875206228394        2.75316321996820
C            3.00000430583644        5.59046205714914        5.57193538833099
C            4.18670935501542        4.96474701508618        5.97036280330319
C            4.23060982571935        4.18952843673730        7.10531323226309
C            3.09514376254170        4.01681612807411        7.87238336344143
C            1.91193518673403        4.62299933772752        7.49820434020584
C            1.86184736023417        5.39775469567313        6.36334025110985
C            3.98068308345111        4.61303149876257        2.95778908840914
C            4.71339959633621        4.20261512057693        1.88098493396413
S            7.60345658959519        6.13840784962106       -3.55312617258009
C            8.13539319207802        4.91309995713244       -4.68520260030175
C            8.69995661872809        5.07426679626090       -5.93988734253814
C            9.03469671381120        3.95929983990569       -6.67402049516771
C            8.80534334275936        2.68630108790990       -6.16381372722637
C            8.24724779451010        2.51650067059315       -4.91876106130359
C            7.91021436536827        3.64103538425059       -4.15768803787400
H            3.34464342027191        2.35919558928376       -0.62998631889117
H            3.02848388100123        0.76978999644729       -1.29738609732017
H            5.40030573464898        0.15329020737693       -1.19627806275939
H            5.73835316618507        1.44559943676984       -0.09465244308146
H            4.99077651085199        3.05862237825814       -2.06324346664135
H            5.24580296397301        1.69676737459570       -3.10081618383095
H            7.62084910164437        1.62435375989906       -2.56003979547694
H            7.43475317968922        2.55589057719379       -1.12116192470761
H            6.32456493758854        6.46796631476203       -1.13166192598290
H            6.09899765617432        3.58400777987095       -0.21057491414335
H            5.38968101087763        7.22401422255827        0.51221107347325
H            4.10174800452147        7.94852651592038        2.44206329588555
H            3.61651165009231        7.90434004457297        6.52880914307519
H            3.00099914514034        9.11868343522610        8.56632295203969
H            0.81391457991547       10.23051825830498        8.72459547461747
H           -0.75947871304733       10.11898349579020        6.83992264950678
H           -0.15729188832090        8.88763794901650        4.80729863258100
H            1.32701166727883        6.12089790815825        2.16120206753058
H            0.48123008231023        6.94518658826028        0.01403074553193
H            0.27784566017727        9.36294995467067       -0.38335669893597
H            0.92567061397214       10.95572670585603        1.37296063453215
H            1.79020090537974       10.13670231932793        3.51715538450852
H            5.07423910849621        5.10477362330077        5.37805641895987
H            5.15245201903401        3.71237073758247        7.39465552911667
H            3.13111659245292        3.40582388346986        8.75921774859737
H            1.02498884572706        4.48474295758661        8.09428446899184
H            0.93688140290097        5.86003684996983        6.06585342791325
H            3.55799465823201        3.88174210985912        3.62515162406499
H            4.86735009310695        3.14898977413835        1.72322118487279
H            8.86649561669510        6.06579936032857       -6.32362238782151
H            9.47423828369417        4.07330936031231       -7.65108033075825
H            9.06721958027304        1.82300188575750       -6.75321351711932
H            8.06107368646079        1.52861508630557       -4.53974051227915
