16
 energy: -2.648557842861 gnorm: 0.000471523397 xtb: 6.5.0 (97a52f5)
C            1.05430064347447       -0.02830569471514       -0.03238134103413
C            2.26608707692859       -0.04693190269398       -0.04510341396935
C            3.68294057524675       -0.08906148197775       -0.07428809185104
C            4.26773875224293       -1.25248312014321       -0.88392168907471
C            5.79642397554489       -1.27041544361896       -0.89607382189030
C            6.36334608456887       -2.42851699735306       -1.70204837816698
H           -0.01210127758134       -0.01714794679232       -0.02240862166452
H            4.06284365873745       -0.13483866902442        0.95514478222665
H            4.06287582533283        0.86031335366362       -0.47492836902937
H            3.88985543056929       -1.20770260155582       -1.91277456691479
H            3.88956077789649       -2.20165428518310       -0.48467542576651
H            6.16715120532130       -1.31021546471157        0.13700160157118
H            6.16747919016280       -0.31553116214385       -1.29203591584957
H            6.03225129339881       -3.38845722282253       -1.30072008090233
H            7.45588337076068       -2.43323351659607       -1.70494159178260
H            6.03277341739516       -2.38532784433176       -2.74177507590155
