115
 energy: -25.528439729401 gnorm: 0.000817656525 xtb: 6.5.0 (97a52f5)
O            0.80159669343730        0.48560180377541       -0.19625051151698
S            2.30712060338816        0.36370188919455       -0.10619883134176
O            3.26239046440092        1.51216681044213       -0.34966140867570
C            2.66593670022089       -0.24495754024636        1.54609157415682
C            3.00869603345592       -1.55516056608551        1.79825151582515
C            3.26681279485607       -1.96409680461403        3.08887757859905
C            3.18063592570176       -1.06425559203589        4.15099273846769
C            3.44429245716110       -1.49377351095887        5.54188591884458
C            4.51649952447847       -2.33185206463358        5.84678753580643
C            4.76972111932840       -2.70994455900121        7.14280693096512
C            3.96054866518829       -2.27062566585938        8.18983307731211
C            4.18992127436115       -2.64568576008053        9.58118041718037
N            3.30824974954142       -2.38914930976141       10.53654744956319
C            3.84354548417105       -2.84837205093672       11.68805548515722
C            3.28357416262408       -2.80576802064828       13.01449165406255
C            2.02109550597160       -2.25411827706613       13.23785982775827
C            1.48977969325591       -2.22057347736970       14.49916488871886
C            2.21064999935145       -2.73817979135293       15.56523521260675
C            3.45434917002537       -3.28338894283811       15.36600006367258
C            4.03133297164164       -3.33537084638616       14.08993514256602
C            5.35898043026266       -3.91062175479834       13.84674850168422
C            6.14218615420392       -4.43786160845991       14.88231108892401
C            7.38354813002335       -4.96917834779137       14.64053732374116
C            7.89593817726263       -4.99558555257701       13.35253907462540
C            7.15988041511616       -4.48983619093219       12.31633855304727
C            5.89124437016758       -3.94372059497713       12.53470100779133
C            5.10267576846721       -3.40377204206370       11.45843254456732
N            5.33342069040740       -3.27981727206277       10.10004472546577
C            6.53609841966192       -3.66286290465010        9.40026203016296
C            6.69983314615582       -4.96291152542020        8.94202987967087
C            7.85023914882287       -5.32584111958530        8.27826277508742
C            8.84869931140635       -4.39596349342463        8.06629729644290
C            8.69546944711431       -3.10138510939124        8.52068226836100
C            7.54586505621455       -2.73557205029436        9.18430307196570
C            2.88185734278929       -1.44400024403725        7.88229716131273
C            2.62995260956534       -1.05997257034037        6.58791757702723
C            2.83400945096394        0.25704385789582        3.87208398913647
C            2.58063061464786        0.65838465358652        2.57855218982117
C            2.81152638247889       -0.99178118511736       -1.16479746239399
C            1.87889984681801       -1.91460979780818       -1.57638876089291
C            2.25363164681394       -2.95094494576114       -2.40399257185459
C            3.57488634520097       -3.07529905618648       -2.83365323710813
C            3.97006931100633       -4.15364490898451       -3.76572554927562
C            3.13835217407755       -4.52041268663160       -4.82327457753101
C            3.51314018825947       -5.49811676630298       -5.71129175497632
C            4.73575104301927       -6.15465768965418       -5.58266687161199
C            5.18310147669468       -7.18704541210770       -6.51157447338023
N            6.32729099979657       -7.83529488454490       -6.34800875362496
C            6.43607490861899       -8.69376742186239       -7.38483418986621
C            7.50081098193311       -9.62030101184228       -7.67285283575128
C            8.60338667165169       -9.72562086086498       -6.82347774927932
C            9.61383651932206      -10.60670313957838       -7.10103248567198
C            9.54333322587044      -11.40211781885553       -8.23519755906940
C            8.46771524412259      -11.31273383892032       -9.08296267746714
C            7.41435095256420      -10.42295781830877       -8.83249508705266
C            6.25348649534557      -10.30432574736666       -9.72182713543842
C            6.12563239575017      -11.07501166006369      -10.88521498044290
C            5.03600596300664      -10.95074400000856      -11.70915546862333
C            4.02672334840328      -10.05018152024115      -11.40534732225033
C            4.11705518321406       -9.28126754912067      -10.27764061642461
C            5.21663703010982       -9.38807943060662       -9.42034620775002
C            5.33249439374783       -8.58525907818063       -8.23117426362109
N            4.51729413861504       -7.61647689391006       -7.67456763928431
C            3.26063519798283       -7.15564963768274       -8.21448670630735
C            2.07384020914114       -7.78828563435981       -7.87038883779666
C            0.87707807421380       -7.35261931123744       -8.39348919749357
C            0.85272851393213       -6.28281210337322       -9.26629427908983
C            2.02859341369893       -5.64931874434503       -9.61647006581653
C            3.22671116369987       -6.08273362680521       -9.09468456144640
C            5.56250566641487       -5.79409656400572       -4.52022380579103
C            5.19064811738084       -4.81465829243141       -3.63101432961139
C            4.50539361702614       -2.13332781859701       -2.39429900789825
C            4.12209387880591       -1.09948385455462       -1.56705205496743
H            3.06962751674936       -2.25570776196689        0.98343425300405
H            3.52205270154300       -2.98999445715369        3.28966474432758
H            5.15918924244816       -2.66839581122935        5.05127045732641
H            5.59971719376699       -3.35596564125902        7.35487353029084
H            1.47513306301193       -1.85810128305215       12.39930737762878
H            0.51380937904861       -1.79434179405432       14.66405197825324
H            1.78883506809439       -2.71134037841803       16.55671094903675
H            3.98947788999026       -3.67732820228284       16.21033529678786
H            5.77011702499825       -4.42808206845954       15.89024453922919
H            7.96588271469463       -5.36801404435426       15.45504619859920
H            8.87224225352947       -5.41360987936581       13.16934772478013
H            7.55634235542080       -4.50800285138448       11.31873219489776
H            5.91433614259406       -5.67745593465272        9.11615110960405
H            7.97104037405086       -6.33638189868081        7.92429981883646
H            9.74865004602722       -4.68104534821766        7.54649894014033
H            9.47498196172439       -2.37596357820645        8.35503548160070
H            7.41188829242314       -1.73015310140939        9.54319970499382
H            2.24747608374536       -1.10872046193483        8.68435957485514
H            1.78866465165154       -0.42550215563602        6.36757761495880
H            2.77774580909313        0.96761278216290        4.67827317077652
H            2.31524586455022        1.68026088695714        2.35913849500920
H            0.85568259981024       -1.80252109021566       -1.25693637640445
H            1.52470150519932       -3.67418837611430       -2.72578274940506
H            2.19975721748404       -4.00914338160922       -4.95147795488151
H            2.85695817823582       -5.75750962684995       -6.51886400295028
H            8.64219311277831       -9.10082856714922       -5.94817551888295
H           10.46204491771850      -10.68284034591361       -6.44065479301501
H           10.34051991754165      -12.09469161089148       -8.45073513727306
H            8.44019891314341      -11.94095477588817       -9.95422561074336
H            6.89364135075223      -11.78007561364250      -11.14490099915530
H            4.96238714608455      -11.55494348205541      -12.59860128609433
H            3.17374456944642       -9.95637797435328      -12.05731510970424
H            3.33651847827321       -8.58269791971068      -10.04235504283938
H            2.10820384256516       -8.62186806838418       -7.19070387252501
H           -0.04094336939359       -7.84736779873712       -8.12162655162549
H           -0.08452045648429       -5.94255035479222       -9.67507953601583
H            2.00909133691045       -4.81484804026260      -10.29820286072606
H            4.15103757009023       -5.59925780941694       -9.35891944492183
H            6.50678621421117       -6.29853310472039       -4.41225120265466
H            5.84047858293109       -4.55361525539988       -2.81367540508943
H            5.52464729354068       -2.20356125621438       -2.73206167808428
H            4.83226305539456       -0.35570570899467       -1.24475226370854
