85
 energy: -18.646246466088 gnorm: 0.000986308614 xtb: 6.5.0 (97a52f5)
O            0.73548620168779       -0.03417862128245       -0.84266050857866
S            2.21558227159728       -0.17925802247609       -0.56327612311014
O            3.05525838877985       -1.34957402353729       -1.02552908405185
C            3.02826205966420        1.32315773252269       -1.10756494645712
C            4.39552324929486        1.35565112361000       -1.25275667771913
C            5.01680097268781        2.51771906258930       -1.65727790600075
C            4.27216629074897        3.66725871043795       -1.92297661324487
C            4.93408774538440        4.91889725596867       -2.35031641815353
C            5.99938110012980        4.89670021534226       -3.25081658338216
C            6.61404983760822        6.06072033051038       -3.64508469219357
C            6.18719811055029        7.28979650796032       -3.15407992380871
N            6.82995400716707        8.50592005355713       -3.56559644456010
C            6.18599008585304        9.67808549599263       -4.01520860059623
C            4.83462292483192        9.96430904572937       -4.20521237734338
C            4.48115132773962       11.20449405905670       -4.67662610979378
C            5.45059427943358       12.16774309103486       -4.96782276778752
C            6.78695187840385       11.89975926209300       -4.79598852140440
C            7.16109167812415       10.64289768108149       -4.31920442094850
C            8.44930157024989       10.05255240531656       -4.04503539606642
C            9.74932343946266       10.55048790490702       -4.13984542189627
C           10.79421728748306        9.73618801249485       -3.77589938790568
C           10.56628073942838        8.43724261114033       -3.31411986420749
C            9.29255120524054        7.93448120523543       -3.21428405890656
C            8.22047300728320        8.74374626359877       -3.58837153152201
C            5.12550722211228        7.31848605613024       -2.25661356072101
C            4.50997798032107        6.15513542871686       -1.86221416554002
C            2.88631125804279        3.60751174485831       -1.77614494423972
C            2.27310352784886        2.44126443311747       -1.37261266898025
C            2.40355585503315       -0.08301913726426        1.22238919163368
C            2.14487081162784       -1.21772991587154        1.95406919445177
C            2.26896894342719       -1.19999085878136        3.32672311672808
C            2.66029946876651       -0.03816314324375        3.99200037680751
C            2.80139562488606       -0.01868581459377        5.46385294297416
C            3.26915048672528       -1.13842683830545        6.15269160184719
C            3.39505188036500       -1.12513899998564        7.52069642543476
C            3.06221073301813        0.00934760670238        8.25208964708844
N            3.19116574528905        0.01853373512994        9.68226639670110
C            3.84539468847558        1.00074141324540       10.45506830962126
C            4.53371958348720        2.15260131290393       10.07671521836263
C            5.10467754429471        2.93151547972680       11.05272599819532
C            5.00639895914309        2.58246753733100       12.40224463263858
C            4.33994002049014        1.44616325973532       12.79207935512875
C            3.75642001021066        0.64356890914572       11.81109744752291
C            3.02054409047279       -0.59630271708844       11.88159261383439
C            2.62081316945053       -1.39241858941090       12.95559779814050
C            1.89623387522927       -2.53087638407319       12.69781689274230
C            1.55977660951909       -2.88792621469919       11.38940609008178
C            1.94636911646996       -2.11463413697011       10.32283233233483
C            2.68930907117964       -0.96013124047875       10.56570548047304
C            2.59904105958080        1.13052696162386        7.57264914798499
C            2.46901778346768        1.11637635202200        6.20457808736833
C            2.91725230395185        1.10169395361109        3.23011573611534
C            2.78747701045140        1.07660603944151        1.85866292314614
H            4.96609240183607        0.46368725147542       -1.05245492737052
H            6.08760721075586        2.54926297234614       -1.75871313806421
H            6.32702014692552        3.95257046360798       -3.65051087581336
H            7.42234079361456        6.03806010300114       -4.35452755168748
H            4.09432844564315        9.21431363974008       -3.99265208474928
H            3.44028365223891       11.43919162115647       -4.82699500216840
H            5.14471776086068       13.13308677552136       -5.33600487073435
H            7.53998005997801       12.63353293962700       -5.02276373900333
H            9.91553572918889       11.55401032849177       -4.48941485045356
H           11.80433075621004       10.10507996423116       -3.84341656498447
H           11.40383936350304        7.82206307625779       -3.02926579323550
H            9.10982127577776        6.94156553756473       -2.84494509704172
H            4.80606611230429        8.26640778542196       -1.86095244500280
H            3.69980638605533        6.18816610575120       -1.15438121045942
H            2.29499697299431        4.47894175516112       -1.99722221287827
H            1.20195318280425        2.38537671916132       -1.26696268310315
H            1.84443414509539       -2.11563960324179        1.43840878777801
H            2.04726685722646       -2.08531563264855        3.89659219067551
H            3.54961009253662       -2.01678301847568        5.59769883342206
H            3.76988866444102       -1.98743450346052        8.04336699391632
H            4.61644526788273        2.40801001092574        9.03569739090993
H            5.63955159370159        3.82460408849015       10.77455229690347
H            5.46399782793157        3.21241622669255       13.14706874274532
H            4.26511174957515        1.16667635255941       13.82802967799971
H            2.87773005701247       -1.10719381515505       13.96034149852235
H            1.57857123001277       -3.15597060432927       13.51592812672401
H            0.98524134947026       -3.78288477527848       11.21603545100132
H            1.67848848333732       -2.37578756365719        9.31494844757955
H            2.32480573222146        2.00329265889240        8.13861744046330
H            2.08768103069458        1.98331248318434        5.69349845624451
H            3.23548725213088        2.00391176614466        3.72256679481686
H            2.98676432393850        1.96124529528961        1.27903467866402
