85
 energy: -15.232354268390 gnorm: 0.002363507126 xtb: 6.5.0 (97a52f5)
O            0.96531191404006        0.00539690507118        1.27682018733322
S            2.45057268791230        0.17196841308069        1.03880983559342
O            3.37941461625575        0.44215551225504        2.20257927212297
C            3.06512675664948       -1.22862956406282        0.10679702327529
C            2.28805859408145       -1.79979251954198       -0.87457500015543
C            2.76986612854886       -2.86880133530463       -1.60005160170903
C            4.04267030034746       -3.38100630285323       -1.34616962672885
C            4.57979612305135       -4.47585165703938       -2.07794493811139
C            3.95377849982285       -5.41092507019881       -2.82547607832198
C            4.61585656313361       -6.42415938201280       -3.48287852817099
C            5.95546480933963       -6.57705294039971       -3.48532384724374
C            6.83092611666895       -5.72474603760329       -2.95467245112815
C            8.04447200008598       -6.06399087155759       -2.56643060725153
C            8.54415192025543       -7.29668325525000       -2.56082696643124
C            9.79385512779891       -7.62893724568250       -2.21618051159982
C           10.38147386835093       -8.90040241969042       -2.21807554284257
C            9.86328916380038      -10.14421734505185       -2.52045146680895
C            8.59586467195316      -10.51204253572785       -2.85359770528139
C            7.43403677174120       -9.80210661136448       -2.97075681852405
N            6.20086447893366      -10.21307518129270       -3.12603010176875
C            5.73816527458677      -11.41817730788516       -3.18726331707269
C            6.36496919108029      -12.59892840066223       -3.13090798398139
C            5.82294070388635      -13.82711254845797       -3.16025971180103
C            4.52861654168545      -14.06539590094235       -3.24450739848821
C            8.22614298908589      -12.11499089905336        0.36839063316574
C            7.23146605417455      -12.94589227330059        0.37268814858840
C            4.81019392403859       -2.78816528531247       -0.34412370010049
C            4.32030643944094       -1.72117738770268        0.37709098774980
C            2.69955771775174        1.42679861601161       -0.21731994181952
C            3.97186972267367        1.74629634892490       -0.63174529652312
C            4.15873235093249        2.70206830851428       -1.60761882472890
C            3.06678634511901        3.35220759341411       -2.18146710814676
C            3.24030028642051        4.33813329798746       -3.19521558320682
C            4.15055260787841        4.35270067258318       -4.19444352548499
C            4.28495277095218        5.38201010952599       -5.09857143013978
C            3.54841647503117        6.51105764813418       -5.07708393347890
C            2.56984894933596        6.78626647860000       -4.21083027588587
C            2.56016081597855        7.84022222103986       -3.41810066975003
C            3.53012113623999        8.74729922817648       -3.33521480560370
C            3.55705604474400        9.79349926945136       -2.50153745786191
C            4.56092482538053       10.76055019365043       -2.36403025108441
C            5.75795843337511       10.93557274827710       -3.03022766808436
C            6.30822829909365       10.22942395885552       -4.05588564527473
C            5.85958452534184        9.15693249428936       -4.77283187927993
N            6.39568346747699        8.51861837713197       -5.78269438356521
C            7.52207947724127        8.71638491449353       -6.38380506404918
C            8.48730477970863        9.61435775379516       -6.15618708991361
C            9.64359640941307        9.78028837271032       -6.81931121223750
C           10.02063156417944        9.05007757850145       -7.85065490437212
C           10.05332250908852       12.89438978145207       -4.76965606208333
C            9.57135176934304       12.03447998435064       -3.92842574107131
C            1.78716660807266        3.02527469339007       -1.73394806599082
C            1.60937664894448        2.06434219495893       -0.76135068774814
H            1.30346120033136       -1.40419923221746       -1.06209075353491
H            2.16686873944422       -3.30702330188389       -2.37563817409444
H            2.87855162471210       -5.37667987181007       -2.88368607643807
H            4.03484168004315       -7.15583564960614       -4.02086759524606
H            3.06214180617133        0.16917517776155       -2.94185305461860
H           10.42914679945348       -6.80683262449138       -1.92230202796603
H           11.42630064234522       -8.90406628229184       -1.94071978862291
H           10.56116435207296      -10.96725164367238       -2.47693887184435
H            8.79152945162665      -14.13240892517605        2.81412946056427
H            6.77245576909107       -4.08294525231751       -3.42123782751489
H           11.94336842261844       -9.12217716041253       -8.67410618576757
H            6.48903249484252      -14.67249763137257       -3.10909993669318
H            8.51523929954814      -11.54959136134344       -0.46924329930014
H            6.61857692265121      -13.13194811226082       -0.46075915684711
H            5.79192842428213       -3.18054419075825       -0.14065651241636
H            4.90501982676968       -1.26535724829972        1.15926960051438
H            4.81390281316324        1.24664715673719       -0.18286062543235
H            5.15265383041083        2.96111165409615       -1.92848307141826
H            4.80202507690725        3.49928092821494       -4.28770310304449
H            5.03744613690678        5.29924149356663       -5.86570965877893
H            1.54173896168583        0.34536729582248        3.35871578416029
H            2.70415850588531        9.88785387522170       -1.84668584951071
H            4.36397157273006       11.49458430862015       -1.59545752342285
H            6.35994885402413       11.76840159146489       -2.69921353755175
H           12.61776329642136       12.14335943374411       -2.86956162093166
H            1.14048488715956        5.92585393373281       -4.32062900625550
H           -0.35258373907695       13.51131720162210       -4.56464520042069
H           10.30456946324920       10.56312763042174       -6.48655103591903
H            9.55122110093071       13.22336914315652       -5.63128377992495
H            8.62841162181505       11.58097201129352       -4.02845181690657
H            0.93950058307450        3.53159390947232       -2.16181749228502
H            0.62393279541436        1.80248835955157       -0.41266694057589
