65
 energy: -14.288669716375 gnorm: 0.000390528472 xtb: 6.5.0 (97a52f5)
O           -0.12105188042907        0.55751806302329       -0.15953963247121
S            1.32644413833216        0.16590503833752        0.03334241235456
O            1.80562531839817       -1.23790572688310        0.33077011989735
C            2.22789531870688        0.72326173778234       -1.41637868418114
C            2.33938064831411        2.08257974672775       -1.70347655918184
C            3.02150896635982        2.51611843056508       -2.81339470638093
C            3.60321217815869        1.56652518436144       -3.65316547379094
C            3.48171271424098        0.19596196389307       -3.36675144895760
C            2.78820426706833       -0.22405881818409       -2.22949299925013
C            4.14959889466657       -0.52454101966056       -4.42221354762231
C            4.33669706496562       -1.88705839111707       -4.65734119266013
C            5.03287369702822       -2.27160336146570       -5.77704194627738
C            5.54794244487969       -1.32330596596041       -6.66539989719666
C            5.37010337020741        0.02051594289893       -6.44786126115982
C            4.65994068333473        0.42866131864487       -5.31960219843284
N            4.33146763583966        1.71638806670016       -4.84996140889603
C            4.66358157795961        2.96410141280853       -5.48188549867105
C            5.29447953758290        3.97220848599836       -4.76307407594343
C            5.60416207348418        5.17087480822419       -5.36579314780271
C            5.28759203807678        5.37979358076065       -6.69337641294931
C            4.66052289385207        4.38543008158576       -7.41761434049471
C            4.35064437722883        3.18539802897238       -6.81750293555357
C            2.03225884692383        1.26045629706186        1.26514219907767
C            1.37230335685696        2.44616103469689        1.57797945204189
C            1.88819012625577        3.31800038101789        2.50504438006223
C            3.08536031914672        2.98522164769098        3.13917075955111
C            3.74551004692707        1.78415896403535        2.82556378138422
C            3.20720731756292        0.91351677354768        1.87515527251373
C            4.93728063597231        1.72521131804255        3.63513141603852
C            5.94270373177473        0.76559457133594        3.75815231814815
C            6.96036214024535        0.99041001036927        4.65263613928164
C            6.99303584731990        2.15243530190448        5.42864792655207
C            6.01111739603519        3.10548558908378        5.31777560686963
C            4.97328967443136        2.89655208287187        4.41036730012549
N            3.83870476233558        3.67666873185989        4.10872870804357
C            3.50320052530173        4.94831302924589        4.68870420892101
C            2.23897910054014        5.16971351283595        5.22147444198795
C            1.91454931369156        6.39202659046104        5.76619581025727
C            2.84741728834533        7.40965292830380        5.78765148809774
C            4.10741250333561        7.20091403287753        5.26304299837360
C            4.43420578633899        5.97955241021669        4.71741752112352
H            1.87523669276987        2.79500372733728       -1.04344665545223
H            3.10261855593666        3.56164328451219       -3.04967277228711
H            2.68967378913194       -1.26948081219294       -1.99502648338129
H            3.93771303203962       -2.60999574276475       -3.96800912891142
H            5.18561326391300       -3.31997769289000       -5.97421220660910
H            6.09304366424150       -1.65336953750573       -7.53412238432650
H            5.76907491912724        0.75638856911954       -7.12276480541001
H            5.54572210033860        3.79584264072309       -3.73198482236462
H            6.09498508020592        5.94622050171009       -4.80077987033979
H            5.52891969264379        6.31877124427649       -7.16372838029636
H            4.41015507220848        4.54987935085593       -8.45277576225564
H            3.84902104621721        2.40987457263296       -7.36907563635969
H            0.43932805170913        2.66198461125210        1.08387772443985
H            1.39163822047788        4.24066661546248        2.74465164996238
H            3.69617387705825       -0.01368827171360        1.63416908184690
H            5.90539851232542       -0.12959925969846        3.16301644545661
H            7.74327240289030        0.25808757786927        4.76237059844776
H            7.79972419630580        2.29973821522563        6.12744806226737
H            6.02243641131488        3.99559373504700        5.92085872218432
H            1.52308900706922        4.36675702582510        5.21180710450951
H            0.93157376236324        6.55409514149109        6.17705444189210
H            2.59233643132096        8.36614967963460        6.21332899963682
H            4.83514055636302        7.99557574338710        5.27841640279283
H            5.40880498441314        5.81189526498929        4.29397278176263
