65
 energy: -12.292348453270 gnorm: 0.001560661418 xtb: 6.5.0 (97a52f5)
O            0.70574813685772       -1.55775230649143       -2.08094030200842
S            1.80702369701414       -1.56382752122344       -1.04394731431942
O            1.60166164360896       -1.01699508816644        0.34664031236866
C            2.45192434784348       -3.18722142234615       -0.93863431737814
C            1.98004532983419       -4.15627868821065       -1.74031486901997
C            2.41434477455098       -5.46265486991603       -1.76054447408829
C            3.38968946537513       -6.01602169335686       -0.98669167250121
C            4.16516318869716       -5.48853166797497       -0.03760354287105
N            5.08542526460698       -6.07325186039433        0.67414145426026
C            7.07025350836439        0.53292102529766        2.36520692959547
C            8.40928818072558        0.55187171645473        2.12727185364293
C            9.28799075292438        0.77081439888744        3.15976526049613
C            8.80973428219177        0.97345595271473        4.45299952936102
C            7.45992113217618        0.95339598011537        4.69115793826460
C            6.58967615550550        0.72907313352859        3.62664809461160
C            5.23970434323214        0.70351778278024        3.70770398696659
C            4.56568204430323        0.84247376611169        4.84996735921648
C            3.24221383716708        0.66518939906028        5.03955374338033
C            2.34343731025075        0.06803963424884        4.17004774790539
C            2.62534264851886       -0.70931278042513        3.05646619295681
C            3.83137350334503       -1.17704020826495        2.71861234087304
C            5.17025294836856       -3.61905362365575       -3.49736495837652
C            3.21656412661335       -0.78393572561394       -1.72460363474670
C            3.25702237086268       -0.40215717105724       -3.01141492567771
C            4.32364367546601        0.22461190835799       -3.61497194763230
C            5.49652410490084        0.58535990156603       -3.02057062221433
C            5.91384829374876        0.44534990100961       -1.75961327907288
N            7.03884502196487        0.82554915523770       -1.22398366647616
C            2.63200082174232        6.03400147356017       -1.25122344141746
C            2.00982056496295        7.18235472460268       -1.63101201000155
C            2.09879971461553        8.30443333011004       -0.84402279613046
C            2.82664945123143        8.26985389679405        0.34398428903488
C            3.45154426640658        7.11107796204988        0.72537764593381
C            3.34582202076678        5.98769757911383       -0.09097524988945
C            3.88907096032483        4.77461148572817        0.16385586531281
C            4.64262235236051        4.48105712571860        1.22411812881992
C            4.76155862918081        3.29861609022220        1.85670857211163
C            4.09724779766609        2.11031089926642        1.61198411710316
C            3.17080833201497        1.79447980795218        0.63442797391222
C            2.76062050066057        2.60884635625480       -0.34152399606598
C           -2.22791896085799       -2.41992935394260       -2.19756385619057
H            1.19385088095147       -3.87161810347571       -2.42364659703862
H            1.94016474697043       -6.13061709513731       -2.46168219668686
H            5.32592484776106       -7.05011829379372        0.57926598146718
H            8.76948655176590        0.39336734899568        1.12493122377097
H           10.34911596715128        0.78586126493054        2.97105259526936
H            9.49976492140162        1.14690915033212        5.26199331384720
H            7.05981915455307        1.10943355811106        5.67737017851350
H            2.84187876158630        1.08250031351247        5.95106630453389
H            1.29596975159277        0.21130291887232        4.39420035986824
H            1.79864248412573       -0.97316326026097        2.41385121052962
H            4.02246591329325       -1.75106614476834        1.85808384926890
H            4.70569845470206       -2.71559770131414       -3.37697900344186
H            2.37668837061658       -0.60301036844300       -3.60348346688744
H            4.22966203756810        0.47131660488824       -4.66047711770953
H            7.77188489186678        1.29147559502859       -1.74086224329641
H            1.45044517437775        7.19808790667234       -2.55111488420288
H            1.60506021346779        9.21417976668738       -1.14461793830354
H            2.89501934248532        9.15035292661709        0.96062449650090
H            4.01651615546409        7.04931837929198        1.63860133183936
H            5.45137129915149        3.28898042240792        2.68629293909378
H            4.33830361848328        1.31632643839045        2.30544684803391
H            2.73985509930406        0.80336175961936        0.65784174603018
H            2.05203290167761        2.35405577043744       -1.07584831475115
H           -1.25712209608393       -2.09549954875692       -2.15244906409966
