67
 energy: -14.246766586212 gnorm: 0.000551876098 xtb: 6.5.0 (97a52f5)
O            0.78812807857822       -0.25935722658186        0.22250396241702
S            2.26893552097502       -0.25822826531932       -0.08922224886144
O            3.19972970923216       -1.43826908452573        0.07745938859391
C            2.39256276685577        0.22942901717919       -1.82193042292676
C            1.35322848044391       -0.02806509124034       -2.68744254026442
C            1.43394641776076        0.37770500762313       -4.00933837491955
C            2.53966641358577        1.06327094714296       -4.46404905495337
C            3.60952002145733        1.33024288705562       -3.60634749654379
N            4.62812762476381        2.31155450668751       -3.93841115138877
C            4.26591133828525        3.59060658783654       -3.34376395669820
C            3.57097470848262        4.62575594172222       -4.09251573341969
C            2.72371754369856        5.54430550509491       -3.59944456698732
C            2.12782092229292        5.50480778832069       -2.21481365894732
C            3.23806149559515        4.04139839344140       -1.11188480393447
C            4.36076991119681        3.54907213613015       -1.96178021025800
O            5.42166865365568        2.88410257918384       -1.34699157967053
C            6.33182255371255        2.24746270693833       -2.20221112550029
C            7.58161552883167        1.85262225476720       -1.75602945285174
C            8.45307538393562        1.19147325396038       -2.60284736583664
C            8.08435142968021        0.90978164869624       -3.90006099856053
C            6.83720598434410        1.28816025355462       -4.36593110195438
C            5.96039836313670        1.95966475523269       -3.53551437017773
C            3.51368573942664        0.86479569266959       -2.28387673509465
C            2.96493102565011        1.08857896788178        0.88701262435377
C            4.31507476922827        1.12026149169873        1.15332229752279
C            4.85244566531547        2.16715234256902        1.88067584204875
C            4.04630136513263        3.19331796793430        2.32418021307599
C            2.67591260033972        3.17852393539909        2.06797420007601
N            1.86544631337771        4.37657785444547        2.23539582813411
C            1.62653915029479        5.06552844850075        0.98362907737447
C            2.59329084754252        5.84022308083156        0.40051055743810
C            3.11686112123246        5.57446720317765       -0.99883331117476
C            1.83443286755006        4.03441071354322       -1.81332708766347
C            0.61099003157842        3.91558009492846       -0.96940252969613
C            0.49980313434361        4.42964549300983        0.26584387846870
O           -0.68521295032747        4.26051855949695        0.99151336421257
C           -0.57693575316283        4.21146161762552        2.38370059770464
C           -1.72068437100736        4.07471853547318        3.15940515304969
C           -1.63394664826349        3.95432601917112        4.52959090105884
C           -0.40153268336520        3.96320982585328        5.15196995054901
C            0.74834841959061        4.10335244432446        4.40457773750630
C            0.68004024955149        4.24185344486900        3.02727002693495
C            2.14987411468873        2.08427135927077        1.36712665226180
H            0.47757172427328       -0.53388755141250       -2.31487885537483
H            0.61406395043525        0.17869214180337       -4.67913866729886
H            2.58044437850054        1.43241842070039       -5.47349462258626
H            3.81959609891132        4.67083049450374       -5.13993316038609
H            2.34519993860653        6.30248717912162       -4.26425107272557
H            1.25431248973566        6.16416825653687       -2.08562886994389
H            3.23751022155811        3.53576355336818       -0.14114781892230
H            7.85549228994294        2.06561070264475       -0.73843303248489
H            9.42285715019058        0.89001869765481       -2.24279289534804
H            8.76459621611024        0.38773880125357       -4.55211658098494
H            6.53098929409326        1.05929155010532       -5.37135146480911
H            4.30291984071483        1.09281108793153       -1.59265037569183
H            4.94075342514230        0.32158104365825        0.79037372167165
H            5.91180863498947        2.19416445965447        2.07458804316093
H            4.46856875736637        4.03926951368811        2.83743584949362
H            3.31196980503571        6.27822192600048        1.07336214195381
H            4.05455517736159        6.09972658539311       -1.23945560262883
H            1.81029695436800        3.35380651283320       -2.67923361213825
H           -0.25420916035333        3.42924858426663       -1.38140900933392
H           -2.67395511758224        4.04632335595195        2.66271977032649
H           -2.53116549897107        3.84193345400843        5.11574565983401
H           -0.33802811505796        3.85848303701541        6.22221652628296
H            1.71433460901662        4.10948915303290        4.87812381471420
H            1.09610307638903        2.05053744472107        1.15140773872480
