67
 energy: -13.982446487326 gnorm: 0.000562982164 xtb: 6.5.0 (97a52f5)
O            0.05706941283238       -1.29870144327711       -3.25884407636471
S            0.95132661725740       -0.75376869001737       -2.16646169927852
O            0.54717456305243       -0.61932170165549       -0.71386774771930
C            2.45622927053156       -1.73171606628716       -2.17188153110973
C            2.50613902202926       -2.81369819698516       -3.02086208497918
C            3.60860088405227       -3.64592971476526       -3.01497671844504
C            4.65073895632876       -3.39549942649324       -2.15329918225207
C            4.63198874199535       -2.28789168486303       -1.30167707532716
N            5.66724161849796       -2.04786785839058       -0.33683915961174
C            7.06827016468304       -2.07601721554772       -0.73508488555968
C            7.48907959302115       -2.89510571482135       -1.88206888483823
C            7.51793701841873       -2.44077707715744       -3.14192181603391
C            7.10530479006978       -1.14840154608471       -3.51356858779955
C            9.32916848536385       -1.16676728027410       -0.54302752536497
C            7.98803368050469       -1.26695795483203       -0.15298362610554
S            7.53126011414018       -0.27911214310932        1.13291522076552
C            6.01143965058346       -0.72508423477848        1.71711026559976
C            5.56579297085913       -0.19092680662547        2.89955769434165
C            4.32075144077922       -0.55608933775589        3.38446152076147
C            3.55336021434320       -1.45873589783815        2.68184426281968
C            4.01598053736133       -1.98890898053729        1.48776154629928
C            5.24951884857543       -1.61688136321863        0.96769007439092
C            3.51159702303600       -1.45244688978050       -1.33877527386223
C            1.46692059368956        0.87984230192585       -2.68839483866210
C            1.06470609000596        1.41206678769970       -3.89267064086911
C            1.44017850678163        2.69909554618034       -4.23701763903778
C            2.19873293475913        3.45618498090491       -3.37007537254870
C            2.60398257401098        2.92577844075401       -2.14794690796706
N            3.38790037343795        3.67619085220829       -1.19219257919586
C            2.82368940492909        3.76492858421443        0.14076825613901
C            2.66865172573221        4.96695474206259        0.73494992790638
C            2.30834260509591        5.16345495492147        2.07894926968488
C            0.56857061399032        2.78501556909119        2.04206620243757
C            1.69279769174668        2.04015147374395        1.63919436813879
C            2.64251437401480        2.47719827972703        0.80670795833579
S            3.83761373479000        1.36279075009783        0.35045050009523
C            5.11289471583815        2.13881710932815       -0.46970200617574
C            6.40418996830370        1.67319630560767       -0.44524160890209
C            7.38732660146096        2.34792239822444       -1.14010133804189
C            7.06969543604415        3.48382912026278       -1.86287419395952
C            5.77130474475947        3.95453624069883       -1.88711167065589
C            4.77753560705361        3.28931052668316       -1.17927654235402
C            2.24881326010067        1.61436922050567       -1.84056331349545
H            1.66277206089185       -3.01362961987351       -3.66195872367945
H            3.63886195927693       -4.50390996666949       -3.66609822358000
H            5.47546271952399       -4.08198054115711       -2.10159910631951
H            7.82102068396476       -3.90193686928142       -1.67879921783875
H            7.84356391346065       -3.09684715557988       -3.93189756311204
H            7.36781214982919       -0.41239308058721       -2.80798523639682
H            9.91243991565640       -0.71009396765348        0.20660218530142
H            6.19386649612529        0.51192685779295        3.42120119439758
H            3.95520046398679       -0.13262954844367        4.30522676850081
H            2.58297433007153       -1.74415254707993        3.05261712079582
H            3.40519294802423       -2.68176021547131        0.93608479296755
H            3.48289611151150       -0.60458949022981       -0.67570511105726
H            0.44310346808571        0.82023137281056       -4.54408070259770
H            1.12522037115811        3.11490001552274       -5.17969743792406
H            2.48321807890269        4.46281418318352       -3.62043486113217
H            2.89200125467548        5.84078126456007        0.14766510393562
H            1.26942498542638        5.26334638007234        2.21626294531426
H           -0.15827924007195        2.86036845179434        1.28381589222162
H            1.76960377011286        1.01590005752548        1.96905727357452
H            6.63606891934699        0.78090585388442        0.16348617693907
H            8.40276570003056        1.98900726755278       -1.10996424471951
H            7.83929238257519        4.00542166103957       -2.40676743427948
H            5.51195089313140        4.83422112729366       -2.44913015426818
H            2.60057048944147        1.18352154926088       -0.89002997827455
