31
 energy: -6.059811001989 gnorm: 0.000819387410 xtb: 6.5.0 (97a52f5)
O            1.87606728180859        0.48380821701436        1.27596456066494
S            1.31131301321986       -0.05534919415121       -0.01551059230036
O            1.83823390527352        0.40165849665511       -1.35342947395886
C            1.34602001627491       -1.86120827054740        0.05367871665195
C            2.61967928270180       -2.56075156481319        0.09496799423218
C            3.79093529415551       -1.84406539224665        0.38845051302234
C            4.94540442462049       -2.62569633538422        0.38369361485736
S            4.44394369075801       -4.13467538620395        0.01300254513170
C            2.76227399493224       -4.00797321055732       -0.18762706893625
C            0.07546880136808       -2.35048943362132        0.05745600890503
C           -0.28632141912736       -3.78939494230373        0.18262722934407
C            0.12229177968855       -4.53401581386341        1.29541778804389
C           -0.30651400097517       -5.86277363128513        1.26175238757252
S           -1.15207891470031       -6.00944559733365       -0.12670342872231
C           -1.09724832140971       -4.47232812725340       -0.84870276551064
C           -0.96107085904755       -1.30967613655344        0.00343407872094
C           -2.33971608739652       -1.51201206925397        0.00090827680800
C           -3.18780456165021       -0.42550750679372       -0.03206602013991
C           -2.68043674701733        0.86183950115805       -0.06325510652066
C           -1.31427736171560        1.07105705190197       -0.06147183676354
C           -0.47758571111861       -0.01544069831670       -0.02712582394622
H            3.78077263582815       -0.78620658005692        0.61933686070611
H            5.95568547589820       -2.32114060904691        0.58250803995698
H           -1.63348949483189       -4.48621051918409       -3.29354286764656
H            0.71473909050004       -4.11334917402608        2.09740592631503
H           -0.12682643310130       -6.63765956559622        1.98302536940935
H            3.07463422767394        1.79475464333118       -2.01433911733270
H           -2.72587549314767       -2.51513508230411        0.02050518677117
H           -4.25401170440339       -0.57998228798227       -0.03440262331772
H           -3.35151091695680        1.70434869603866       -0.08895656930052
H           -0.89941488831905        2.06429052329121       -0.08466180241851
