139
 energy: -25.459414322592 gnorm: 0.000679946395 xtb: 6.5.0 (97a52f5)
C            1.57248204286889        1.89460250144548       -0.71831117377517
C            2.83188975854005        1.06821397318530       -0.39745119644373
C            2.66571431176945       -0.33112712889082       -1.02108119977137
C            4.06837882303131        1.73713035531539       -1.02577736144675
C            3.02160246137038        0.99490863267756        1.12498086329240
C            3.10969645090869       -0.21166105497351        1.80939175091292
C            3.32633584373228       -0.24534197032972        3.16844604674073
C            3.46795829545257        0.93215371712032        3.89773326951225
C            3.79599965936890        0.90488800561822        5.34488833000347
C            5.00247662898504        0.31594962897965        5.77831914173133
C            5.92485060759316       -0.28362000808357        4.77923282685521
C            6.35748953361158       -1.61415895998881        4.90902274803544
C            7.21917479603161       -2.33162146880595        4.10929419178712
C            7.87380671243487       -2.02625480313009        2.94332929093893
C            8.12707467327787       -1.14449484799044        1.91805795987636
N            7.80553989565963        0.09170037567460        1.61104117480131
C            8.12645860560587        0.72527391174121        0.49663360824896
C            7.73070744258847        2.01038989475643        0.07614775455639
C            6.98631899487100        2.92900176261803        0.72305049763497
C            6.58429932378536        3.07483692851213        1.98576934519507
C            7.26999397621124        2.84340747455972        3.09291760627161
C            8.60533033109064        2.79977338678472        3.11771051677278
C            9.33855776581137        2.23214485364224        4.06772494242936
C            8.88639681284614        1.60781797947032        5.17052612131135
C            9.64355333866309        0.93587832153033        6.12204672788671
C           11.02366860852960        0.82108999217047        6.18240759900224
C           11.88157787758043        1.36925423361778        5.31834850270829
C           15.54305466820420        0.82170410306376        5.85847533533888
C            6.34767104753961        0.47752853213364        3.77036940315916
C            5.35156330883273        0.36207935459091        7.13814680019082
C            6.55475377761917       -0.20659070103628        7.56734484540513
N            7.55486639284051       -0.67677541859294        7.92870566877934
C            4.49984595414347        0.97849839130391        8.07003554749078
C            4.85775781550831        1.01484465250490        9.51165190545481
C            6.08779382737421        1.55125931702415        9.92918340083672
C            6.61133481511246        1.64938033960682       11.19920715758307
C            6.11377375975707        1.32594940787523       12.43549359491808
C            5.07693200259869        0.86049719312512       13.21052414255564
N            3.89097083826416        0.32537830236017       13.02456972275408
C            3.02471406797946        0.02608166732665       13.97649301492997
C            1.69422216014752       -0.42293552876872       13.85499225384651
C            0.96824455929106       -0.77728708627891       12.73360875238554
C            1.41593522432259       -1.02655620600214       11.46901553803744
C            2.56328421167048       -1.54958785154271       11.06577496589502
C            3.26815000202701       -2.41986231823830       11.79510750004759
C            4.52586688108324       -2.76667639611357       11.55302345896853
C            5.28685229043467       -2.33185315723880       10.53224824030869
C            6.62759487263138       -2.61433598315226       10.30330837458508
C            7.45575785834390       -3.45019744704263       11.03592871518926
C            7.08504566338469       -4.15641040660179       12.10688693987371
C            9.66705074553064       -6.28952746233161       13.77215088724591
C            3.99710865420718        0.51367118933178       10.39737411680113
C            3.27112627383072        1.52443843458370        7.64097387057604
C            2.32334357285332        2.08003210284709        8.63893800622047
C            2.68092883870787        3.14718843026574        9.45857744055969
C            1.84115727569681        3.57496127661743       10.46151675075849
C            0.61321952118329        2.96470044989270       10.68437621297821
C           -0.26301328559769        3.42765483133511       11.85773568093308
C            0.50500658937316        3.20934409833685       13.17480396755429
C           -0.59659447985319        4.92145629233485       11.69050103913859
C           -1.58470990455318        2.63866235638527       11.92994367065190
C            0.24410882865543        1.92089227602459        9.84439316691353
C            1.08002283129829        1.48614022467080        8.84127478778657
C            2.92548909164426        1.49741424881853        6.27764698247731
C            1.64596249958856        2.09468559171565        5.82319454997739
C            1.36231427459743        3.43823558868288        6.05023257546992
C            0.17595219361559        3.98948978097126        5.62242359951151
C           -0.77306489709905        3.22844973783539        4.95179734283194
C           -2.08247271048300        3.88391989513405        4.48687761436446
C           -2.82666947570158        4.45656189600255        5.70761883638033
C           -1.75859329059536        5.01757290901098        3.49646888924556
C           -3.00949755620910        2.87376791271488        3.78331600136612
C           -0.48742927977588        1.88730692574071        4.72490266528311
C            0.69632537039281        1.32930983981649        5.15239193717558
C            3.36150104819407        2.14176152020205        3.21662462825289
C            3.14481824517144        2.16805995462429        1.85822561869824
H            1.39977872504306        1.93995099266204       -1.79329050836661
H            1.66381449340051        2.91674329170043       -0.35373525833620
H            0.69243331777408        1.45069769732841       -0.25363324448630
H            2.51794507713961       -0.25886981056662       -2.09837156467764
H            1.80121144095653       -0.84635078098491       -0.60330159064927
H            3.55055930892247       -0.94412835672039       -0.85188655903670
H            3.97438260424143        1.79319968785849       -2.10987644129684
H            4.97027512400872        1.17128919142017       -0.79373766514430
H            4.20443824258993        2.75005075059588       -0.64921899796534
H            3.02042566838088       -1.14010814082733        1.27420377853444
H            3.41140341123254       -1.18730042391020        3.68267617872296
H            5.97014020631849       -2.12417150415410        5.77737311324748
H            7.42920820911951       -3.33326336895919        4.45659056235530
H           13.67915976015388       -1.50663397711738        5.95904401530940
H            8.73354164807436        0.17100313028597       -0.20631171865909
H            8.01468957094356        2.28441141516312       -0.92876993812221
H            6.19626946899848        8.32001334432038       -0.97863314772522
H            5.95332829880906        3.89788345410267        4.26222534890204
H            7.81830936744376        1.61327697716451        5.30992558462587
H            9.09017071304220        0.42345378771020        6.89510985938798
H           11.43695485230972        0.24645041386192        6.99774242250190
H           12.92725658718763        1.28037535653214        5.37556921554352
H            6.15781155480549        1.50627914773349        3.69998360937317
H            6.71138766964669        1.90941075517875        9.12474292978746
H            7.60973914496170        2.06059254848690       11.24454371002327
H           10.32143316800548       -3.47993586623604       13.10850836026893
H            3.35710380381713        0.21579617583612       14.98860101501043
H            1.13814433194857       -0.43414180429483       14.78200031648769
H           -0.09974954051522       -0.88055648463760       12.86661976044394
H            1.77837092863112       -1.72645675962582        9.07188524029985
H            4.79897735137071       -1.67379572599116        9.83274178693844
H            7.08372235259882       -2.10810637340646        9.46518944719220
H            8.48097933755573       -3.54058149787024       10.70957590759433
H            7.72011657103978       -4.79136668380927       12.65291354778242
H            3.12677617981332       -0.01110100303511       10.13854487845531
H            3.64084597022443        3.61323291730896        9.31623129159790
H            2.15088099830256        4.38531541224585       11.09826035674957
H            1.42806177069892        3.78704550658378       13.19603066207497
H            0.76684429150119        2.15895486922868       13.29629159962222
H           -0.09652966826314        3.50882915905506       14.03255138258967
H            0.30500930222753        5.53236172704784       11.69356105451933
H           -1.23708449492261        5.27067546849251       12.49999610793339
H           -1.11661854641960        5.09642161668872       10.74901381661586
H           -1.39918856199662        1.57496322520388       12.07646685592307
H           -2.16842599672904        2.76712387678630       11.01882482925408
H           -2.19533167830261        2.98338540614776       12.76414702795981
H           -0.70053958930832        1.42659538919537        9.98472287467339
H            0.79251390501055        0.65919227309313        8.21498486769769
H            2.08809100093487        4.04260348742539        6.56679123678490
H           -0.01938457634828        5.03100201801136        5.80983414260028
H           -2.23643419122355        5.22224476483342        6.20914878597426
H           -3.03957775437807        3.67058875626158        6.43175956487107
H           -3.77319598632218        4.90769685697219        5.41091784779430
H           -1.14569509258600        5.78780241560467        3.96268522776996
H           -2.67052486380731        5.49140965530115        3.13407936150372
H           -1.21330464900958        4.63188854169346        2.63539731142545
H           -3.27673866509268        2.05542494039555        4.45133470493158
H           -2.53415671661459        2.45659145278658        2.89596241177234
H           -3.93435149709208        3.35460670413961        3.46536764952643
H           -1.19707646675573        1.26757534726721        4.20653659746254
H            0.90386446166235        0.28889749891908        4.96968400682829
H            3.47377519688823        3.05972610541219        3.76734753212195
H            3.08819260082937        3.11592630179040        1.35192093706845
