15
 energy: -2.305390320956 gnorm: 0.000855976416 xtb: 6.5.0 (97a52f5)
O            1.30389839395835       -0.67478595543918       -1.03740876632317
S            0.61323042046332        0.07200145455750        0.07016574453627
O            1.23515912308637        0.85147801937798        1.19614803007754
C           -0.58938245551442       -1.08058155698252        0.82872138399179
C           -1.91671003621567       -0.73624935338200        0.16883830914360
C           -1.94302077912064        0.77936723899337       -0.04089046786254
C           -0.63057965049458        1.16803314050327       -0.70441153339307
H           -0.60070217273197       -0.88684289801309        1.90182771433501
H           -0.28035849440115       -2.11437858035194        0.66863546953880
H           -2.77469377276109       -1.09352836410399        0.75386534075969
H           -1.98169535452518       -1.23108859089177       -0.80952610937817
H           -2.02114668021494        1.27154898464110        0.93791069924781
H           -2.81436007233297        1.10757931713190       -0.62329141791403
H           -0.36299653968162        2.21525471998386       -0.55656903070758
H           -0.63404192951364        0.96055242397558       -1.77499536605201
