108
 energy: -23.430402972993 gnorm: 0.000329275416 xtb: 6.5.0 (97a52f5)
O            7.70411381368380        0.89793201318478        6.10178311757365
S            6.87669010794103        0.58185037202501        4.87280041721001
O            6.10003106004582       -0.70784673499594        4.76816352146842
C            5.80050318647671        1.98519570263576        4.58490813339866
C            5.33104486448985        2.65335746051172        5.69361636162882
C            4.56406210144825        3.79030638089001        5.55524395109477
C            4.23944626564780        4.26340575633782        4.28578610908072
C            3.61210176525434        5.58495395373660        4.07095373025907
C            4.01038582879059        6.68837501106909        4.82897809372892
C            3.60310858345065        7.95650153908499        4.49561258943529
C            2.78101220990622        8.17508584995100        3.39153903711243
N            2.49085580044988        9.50762145283341        2.95383535982039
C            3.51612467752073       10.51175108116948        3.01953693045782
C            4.84818568951629       10.18346690237286        2.77897261054342
C            5.82900422144612       11.14797660875347        2.82251412146513
C            5.49817207953701       12.45827006503238        3.10634322907802
C            4.18160482477250       12.80012821219219        3.34629509669688
C            3.19864655568167       11.83715737231050        3.30313535835649
C            1.24941453826254        9.80201372572459        2.29792828258553
C            0.05974005923197        9.22787662689970        2.73701925372845
C           -1.12909198083163        9.50394448540085        2.10024173307202
C           -1.15155210938390       10.35657512537408        1.01385713444791
C            0.02061726297150       10.93339421654110        0.56609718314290
C            1.21030835523819       10.65968399468263        1.20169791270475
C            2.33431810313097        7.07052576421095        2.66771050434989
C            2.74484235179119        5.80205425238538        2.99755983765453
C            4.67288263165004        3.53129657791715        3.18304445952409
C            5.47567158445234        2.41033400805172        3.30648514234522
C            6.02961059139864        1.74111247507170        2.04449048019807
C            5.96969515329295        2.73171530623469        0.86665796871024
C            6.59595593398290        3.95146950691834        0.70731507332308
C            6.39492060659126        4.66074549744371       -0.46163392350877
C            5.57699714578436        4.15838269997607       -1.46058263630166
C            4.94776287907403        2.93943918358501       -1.30881754072052
C            5.14784729292050        2.22388237848053       -0.13752473781438
C            4.62483991696931        0.91998960844032        0.28381743793787
C            3.77403350712826        0.04696785088800       -0.37874195801253
C            3.42445839796716       -1.13819675842287        0.23451058418645
C            3.91552993071931       -1.45066384060362        1.49060326243473
C            4.76284913651590       -0.58268371851547        2.15149322946443
C            5.12107850038242        0.60596891567871        1.55117310574592
C            7.47548271298260        1.27548113799977        2.24357973646977
C            8.38095446047782        1.42276192505271        1.20675487628337
C            9.74339153098098        1.17691691868916        1.36218243475810
C           10.68863276662670        1.60642312733222        0.31111761884803
C           10.37752733607634        2.70528464930542       -0.49358705981226
C           11.27110269887263        3.18430993686110       -1.41664094799704
C           12.52220054128236        2.59357994956551       -1.57239574851923
N           13.47130628989875        3.15067577638954       -2.48627395457283
C           13.45463146731232        4.56237382965782       -2.75647310879437
C           13.25347572773461        5.48199608663858       -1.73006407169497
C           13.22129691736479        6.83262962005325       -1.99331465211132
C           13.39214153325539        7.29019744313935       -3.28506382403127
C           13.59815778778016        6.39109012278025       -4.31304082024135
C           13.63063277226193        5.03975240649995       -4.05246750516660
C           14.44556608085086        2.32210432097944       -3.13591617818724
C           14.12290583194008        1.03691254376762       -3.56283410506101
C           15.05945745751021        0.25323260979819       -4.19819255477667
C           16.33337123911825        0.73848686945073       -4.42028305819992
C           16.66772335620660        2.01240836251935       -4.00501153831260
C           15.73311946475168        2.79777411170902       -3.36947259000039
C           12.83102894540120        1.48429257823144       -0.78601139176778
C           11.93363828570262        0.99984338219521        0.13611681324996
C           10.17534814147469        0.66184598512717        2.58320785755307
C            9.27543682952979        0.45866045401498        3.60792610461913
C            7.94694319412205        0.78376692666027        3.44976027792895
H            5.61266614384838        2.29670505437866        6.67144996154250
H            4.23471296831145        4.33337564870385        6.42403950478316
H            4.69244224508042        6.54115927631036        5.64861183144144
H            3.94041737063418        8.80427478969918        5.06575261009106
H            5.09796055967200        9.16326591264345        2.54563849257484
H            6.85562341846441       10.88053575086315        2.63260505548521
H            6.26659025751741       13.21312800057862        3.13956574751471
H            3.92347570464557       13.82270609983692        3.56761254117831
H            2.17162162343736       12.09537457915091        3.49321557320856
H            0.08393435993534        8.57044466447076        3.58842219498692
H           -2.04385710135334        9.05475557362485        2.45062107298363
H           -2.08267332266723       10.57148030074561        0.51571979278193
H            0.00451051369379       11.59687067163025       -0.28302287413936
H            2.12866794987074       11.09673641984383        0.85071722037757
H            1.70129883004643        7.23151247517219        1.81309515236727
H            2.42075592795942        4.96164792251791        2.40791572687927
H            4.43916814874429        3.89944433885648        2.20123039795553
H            7.22823008250622        4.33254697033901        1.49032969525327
H            6.87845387827779        5.61459057686179       -0.59567743242062
H            5.43040501975107        4.72456658140336       -2.36555245872961
H            4.31236217656220        2.54012072048876       -2.07973187012881
H            3.39916805343151        0.30037968088792       -1.35483349539605
H            2.76457508671220       -1.82596834630940       -0.26812915232141
H            3.63541884300735       -2.38004941566750        1.95925057096957
H            5.14618335142864       -0.82269849972470        3.12555276459362
H            8.02638651224453        1.78271647617891        0.25887535832238
H            9.43473238514040        3.20695352472705       -0.36065264582371
H           11.01740709077717        4.03297832325280       -2.02715471526641
H           13.12897975932804        5.11905252537201       -0.72480503540265
H           13.06238586802715        7.53370515779127       -1.19038772542900
H           13.36480506266170        8.34775469730085       -3.49055938631813
H           13.73103158163076        6.74795389434066       -5.32117694503318
H           13.78110169217165        4.33293107199392       -4.84953301154800
H           13.12447882038640        0.67034211441111       -3.40042935727058
H           14.79734633265689       -0.73958346502072       -4.52517662255686
H           17.06546617273862        0.12436482584459       -4.91845766775310
H           17.66121620783266        2.39229044055912       -4.17844366204587
H           15.98795064553264        3.78926180188628       -3.03825578521014
H           13.79872214530844        1.02693215251462       -0.89233263209304
H           12.19067575174104        0.14527179764315        0.73745272190214
H           11.22268189192601        0.47294058167722        2.74069508001503
H            9.60754319000733        0.08953037374960        4.56504123920929
