167
 energy: -37.208467730203 gnorm: 0.000714556156 xtb: 6.5.0 (97a52f5)
O            0.92716036230121       -1.09408521441584       -1.54287238877612
S            2.41096055184524       -0.95663722531822       -1.28080254022846
O            3.46024955851100       -1.00537590327183       -2.37264972048086
C            2.69103865839804        0.58051824467092       -0.42324337449419
C            2.07202622602742        1.68796087650113       -0.95540196906722
C            2.24618894069968        2.93079834289107       -0.38739278324030
C            3.06721714344451        3.07865530380825        0.72574216611502
C            3.26325829163274        4.38609093170991        1.38460079948945
C            2.19858697032600        5.30808602298972        1.48660678986696
C            2.33911640449124        6.50672353492140        2.13589872519590
C            3.56903454143063        6.81785141782580        2.71570589327854
C            4.64280018991062        5.91741870600401        2.61544008122495
C            4.48934958436945        4.70438067297138        1.95208661730276
C            5.76643864749342        6.51062186804365        3.29983645944011
C            7.06789165278746        6.06378565519623        3.52954641680159
C            7.92080979851374        6.86506527426481        4.24902018299043
C            7.49832768598036        8.10093690572474        4.74584080262500
C            6.22008247189036        8.55289708074243        4.52815812081031
C            5.34295896638710        7.75544547551954        3.79451984323846
N            3.99146323260117        7.94935476373824        3.43862469915412
C            3.18269517362954        9.08795517508992        3.77828095791942
C            1.94375104083064        8.91791806007055        4.38451153023650
C            1.16973308700027       10.00895162101892        4.71073344757907
C            1.62158223956090       11.28454240412819        4.43618628698508
C            2.85092891540258       11.46617669411542        3.83414107884994
C            3.62676708108149       10.37654634022282        3.50735608991157
C            3.68985306631434        1.94354936621520        1.23481607159875
C            3.49631966924203        0.68100865714848        0.69707185540900
C            4.21607379199524       -0.49613892771617        1.38255566857432
C            3.67811264164469       -1.88785766763927        1.03104773613616
C            4.07977003619409       -2.94857919013052        1.82653503128741
C            3.65254973734300       -4.25546997098937        1.61274736304164
C            4.13633398200899       -5.35282183284377        2.47661239115909
C            4.59294765760869       -5.08803059941581        3.78831985409342
C            5.07156607330484       -6.07752956705158        4.60587122378546
C            5.10305083331523       -7.38709868957555        4.12946498847179
C            4.66367793216535       -7.67216105456217        2.82616138838094
C            4.18341298702453       -6.65747534841988        2.00337473067938
C            4.84462948027959       -9.08876853426891        2.61384857441380
C            4.58058663513710       -9.91651858436081        1.52235159490181
C            4.86015201436409      -11.25734708854239        1.63030429456620
C            5.39490468111175      -11.78783571993863        2.80730647929525
C            5.66089470405187      -10.98530498248280        3.88925493498633
C            5.38962104102388       -9.62128471375876        3.79428446935586
N            5.54876066888346       -8.57875824725862        4.73090928086689
C            6.08525953322363       -8.70693013950313        6.05826680026247
C            5.39103394351014       -8.20488200488815        7.15236166076546
C            5.90774918901677       -8.32511732032956        8.42297012124246
C            7.12503859354852       -8.94689133844925        8.61895976655744
C            7.82459850298908       -9.44864146848773        7.53937362654656
C            7.30943359678477       -9.33025488011915        6.26796032786220
C            2.78873937710909       -4.48629322655716        0.54559197328158
C            2.42550501518818       -3.45249020282102       -0.28959743244737
C            2.88118706760655       -2.17442928316858       -0.06390210025419
C            3.99359470768956       -0.28889054939634        2.89307893614100
C            2.72395134401193        0.07943046597477        3.31154338006464
C            2.42727454319925        0.35421159708220        4.64283589583369
C            1.07878468620257        0.82289887048427        5.02538150682937
C           -0.07074167383729        0.24112392974975        4.44745235417791
C           -1.33332022890804        0.67320093137376        4.75835676853458
C           -1.48123715944988        1.71767585075923        5.67115156313757
C           -0.34802760926999        2.31521337284692        6.24887462080561
C            0.92936246755773        1.86533535073199        5.92889091422859
C           -0.81468362938797        3.37133984571645        7.11512170399584
C           -0.14333040448360        4.28207021892270        7.93127995122475
C           -0.88265725260430        5.18065760563225        8.66150374609628
C           -2.27844091228026        5.18507139880208        8.59504855263240
C           -2.95251239156584        4.29569261068649        7.79505515024707
C           -2.21761062659398        3.38191010209757        7.04103125064544
N           -2.63334252511230        2.36588989760432        6.15487225941502
C           -3.99238867857909        2.04611258914620        5.81314117978409
C           -4.45234784042011        0.73744270137202        5.89758478587077
C           -5.75497817553879        0.43196300578476        5.57233784188898
C           -6.61660603006457        1.42824326268083        5.15807566522161
C           -6.17122734025952        2.73222935107383        5.06939749894431
C           -4.86895201446723        3.03982361760069        5.39419921948133
C            3.44138749348744        0.21415112618337        5.58432597857992
C            4.69557862984315       -0.19557607758670        5.19010716538288
C            4.96564506536547       -0.44735929219691        3.86499608207658
S            6.61904275831177       -1.01028383184455        3.50369181339305
O            7.59425806883371       -0.10417214533072        4.22521395780898
O            6.56109470225049       -2.50969035687661        3.71133732411947
C            6.76628824984506       -0.68363466861993        1.75456841629140
C            8.04461671557816       -0.69051568997641        1.24705644093064
C            8.26977915065267       -0.48931729461111       -0.09754570843235
C            7.20155195965430       -0.27949225696451       -0.96557169599132
C            7.40035690154966       -0.09919707934250       -2.41938036309208
C            6.37015957437933       -0.42326669218535       -3.33212483490591
C            6.52213463051612       -0.27139896985283       -4.68451482664375
C            7.72855407471030        0.22453484052169       -5.17501277091055
C            8.76736087713414        0.55042262585937       -4.28770334153383
C            8.60066509044126        0.39286989814299       -2.91465334303356
C            9.87621096869232        1.02132410215295       -5.08343148293264
C           11.14874185882058        1.48050803992508       -4.74258557214745
C           11.99514483503391        1.88046885612326       -5.74807252795649
C           11.59502601237589        1.83398658287403       -7.08609932161453
C           10.34622865419847        1.38356430253709       -7.43655451554066
C            9.47694162931309        0.96656096777444       -6.42961552495093
N            8.15508872966155        0.47801263323343       -6.49184168921714
C            7.37476515845309        0.28636186178777       -7.68356143971580
C            6.08941736090728        0.80671573861225       -7.77603926164944
C            5.33815747295876        0.61646616446414       -8.91409757187422
C            5.85986838377532       -0.09534086247832       -9.97597707519858
C            7.13599383073159       -0.61675050357183       -9.89650823296412
C            7.88877602612438       -0.42799528971737       -8.75901862630083
C            5.92152678721899       -0.26868248628756       -0.42100648851624
C            5.67884764019074       -0.45389965317361        0.92982280511074
H            1.44878967813190        1.56598445094366       -1.82732914757852
H            1.76424063792062        3.79402664831262       -0.81159656980039
H            1.24706323008611        5.04520068047821        1.05815059766237
H            1.52425286988801        7.20420283702442        2.20673681557001
H            5.31990429808234        4.02693649049729        1.87980809472750
H            7.38184174571987        5.10724233657596        3.15078314458611
H            8.92889424779653        6.53450251538651        4.43729622754702
H            8.18675651055147        8.70662346332136        5.31175640702465
H            5.88487812915874        9.49699660007968        4.91807201750086
H            1.60590279332322        7.92074790322616        4.60628983629733
H            0.21134425443556        9.86694210819941        5.18254953961094
H            1.01510014446384       12.13791510129530        4.69147617297297
H            3.20290247247007       12.46143801494017        3.61768240336794
H            4.58034862363587       10.50725113950189        3.02652769963542
H            4.31485711069501        2.04196592444303        2.10393829835342
H            4.80333157459441       -2.76111564051180        2.59786408952847
H            4.57833330803702       -4.07580510518090        4.15276351203206
H            5.43754976094230       -5.85918603501262        5.59286074656456
H            3.88144223595764       -6.89123483056343        0.99984969992398
H            4.16603046736801       -9.50043468803058        0.62129673761095
H            4.66289136707276      -11.91052304164330        0.79628966685270
H            5.60029533318642      -12.84397955372524        2.86625041752488
H            6.06379564103802      -11.38757130411285        4.80124084034866
H            4.43898963731645       -7.73049808585652        6.99048490555901
H            5.36139175640701       -7.93425604612573        9.26563945096743
H            7.52899004763901       -9.03938519020621        9.61372067186308
H            8.77684088845270       -9.92973882629062        7.69144612338804
H            7.85321686891299       -9.70528039960273        5.41869140468999
H            2.41358752027533       -5.47785976886945        0.36491946056059
H            1.78914315326816       -3.63373214552655       -1.14164308317854
H            1.95010128199622        0.20021429160137        2.57503064267387
H            0.05835935180405       -0.56768908730574        3.74902987863557
H           -2.20321831771496        0.23191575500943        4.30664729832219
H            1.79041807926593        2.33974370173370        6.36197151570468
H            0.93107692554819        4.26836894763614        7.97959694645722
H           -0.38002428126062        5.89043022333094        9.29754008749510
H           -2.83372456836901        5.89692259470521        9.18327828097455
H           -4.02647735386431        4.28687258299020        7.74726547654583
H           -3.77741555168591       -0.03014826697223        6.23350198623973
H           -6.10260613935934       -0.58561663042892        5.64291973683405
H           -7.63582949379324        1.18805600532490        4.90362002479516
H           -6.84251551236579        3.50966028106223        4.74339721945185
H           -4.50890876134687        4.05060646386217        5.31511156562124
H            3.23382254027831        0.41282354662017        6.62123948909609
H            5.48417969990213       -0.32401519709680        5.91481638869372
H            8.86876961336075       -0.86888143341935        1.91981649948601
H            9.27284360184244       -0.52809321507495       -0.48339786483060
H            5.42962122445654       -0.79099093121774       -2.95850679849812
H            5.73236102670255       -0.52948945936612       -5.36671132489106
H            9.39715613806033        0.67252179982303       -2.25110450016706
H           11.44713982099665        1.51710223666935       -3.70988606606074
H           12.98139690153724        2.23790387508363       -5.50210351820829
H           12.27754457495157        2.15823410140231       -7.85427995337712
H           10.02797439626387        1.35485951152873       -8.46302071954150
H            5.69557238136228        1.36976474630339       -6.94806042545415
H            4.34233118359871        1.02371236147899       -8.97542185064390
H            5.27068893227355       -0.24487801824398      -10.86578932449511
H            7.54204357735861       -1.17485795814149      -10.72410094733917
H            8.87772813537778       -0.84453698639143       -8.68139951094844
H            5.07953186994934       -0.14174248011356       -1.07462181510660
