104
 energy: -23.102001836532 gnorm: 0.000531429170 xtb: 6.5.0 (97a52f5)
O            3.76708981174391        2.26142015176335        5.00896210836176
S            3.22579798812788        1.08335190455392        4.22549536741755
O            1.75710042455489        0.72188294695082        4.26492080227537
C            3.71337848973964        1.29876067920862        2.51859716371237
C            3.60778093480760        2.57537538634464        2.01883378766277
C            3.94249479882226        2.84059989007113        0.70748091555661
C            4.37541251572986        1.81276890549765       -0.10092945640258
C            4.47940533589950        0.53443704750245        0.40620344960771
C            4.16687706168813        0.25341707449623        1.73033983218691
C            4.25747526813947       -1.18858994271841        2.24448771323921
C            5.23516774948681       -1.99807423583599        1.37866936028434
C            6.59147650592589       -1.84450124263158        1.20970393309757
C            7.28396565931636       -2.69517408714582        0.34371020883948
C            8.74207889323260       -2.54977027233626        0.15897157773393
C            9.33014056570435       -2.74021154209027       -1.09269683847836
C           10.68730796866955       -2.61294792435117       -1.26111488507838
C           11.50893872955338       -2.29429587239100       -0.18511390938336
N           12.92899176455341       -2.17779265187523       -0.36055088243824
C           13.91880125629854       -2.80785611679394        0.42324808369519
C           13.80927607012728       -3.67418791530708        1.51010424816750
C           14.95690932351399       -4.16732332290479        2.08041366999642
C           16.21564293150453       -3.81637819464722        1.58549535578889
C           16.34157023551948       -2.97046773040532        0.51009721922137
C           15.18409636094886       -2.46231210810844       -0.08045976784493
C           14.97239005868905       -1.58827038586810       -1.21013755810663
C           15.85483731359621       -0.94319347630395       -2.07720882950709
C           15.33799394092095       -0.14971737932682       -3.07280821475036
C           13.95793716235569        0.01482113760703       -3.21740067822927
C           13.07758251668793       -0.61491277456360       -2.37250955890660
C           13.58455648006080       -1.43076621621626       -1.36202248346951
C           10.92940427830691       -2.10002863228009        1.06429099384503
C            9.57172953974686       -2.22306266229311        1.23333551732666
C            6.57172417612651       -3.69003448103338       -0.33972017473381
C            5.21444513677827       -3.84829417298853       -0.17346786422510
C            4.53982968598886       -2.99742313733521        0.69172499299478
C            3.12676025432733       -2.94815383239345        1.06784360222998
C            2.04790854469607       -3.72866646482667        0.67309769486815
C            0.80378715456844       -3.47672606717297        1.21060849122232
C            0.59878459557384       -2.46152572594896        2.15731843915606
C           -0.72874590209034       -2.19644796526825        2.74904695199624
C           -0.98434812975811       -1.01508727858660        3.45460714270322
C           -2.21946931872537       -0.76511383420431        4.00018948876465
C           -3.25146320320105       -1.68706949318598        3.87493647349948
N           -4.53826518853152       -1.42924605223755        4.45670957359513
C           -5.25802264336557       -2.30058806939324        5.30110190430295
C           -4.93928028848924       -3.56565465900033        5.79258219122896
C           -5.82753360415686       -4.19122751666615        6.63226969999475
C           -7.02942705732850       -3.57786385605194        6.99540560039222
C           -7.35564279142832       -2.32823829601894        6.52620110048357
C           -6.46212572527156       -1.67961566888743        5.67318724174426
C           -6.49046703961155       -0.38293698254335        5.03819861057425
C           -7.43037407465608        0.64814414678976        5.04801415513188
C           -7.17009595370450        1.78382325803198        4.31965450848955
C           -5.99102089731428        1.90931031052203        3.58026714376280
C           -5.05600055812784        0.90392180452856        3.56292958898783
C           -5.30070155883107       -0.25230450756624        4.30237111510454
C           -3.00625179377885       -2.86989908844254        3.18798328517650
C           -1.77241065119936       -3.11915598803888        2.63759988697276
C            1.69814701952397       -1.68775229368550        2.53202043008612
C            2.93737371578652       -1.92042735843280        1.99138344703510
C            4.63586331009047       -1.27907679585670        3.72617478137509
C            5.36741567118589       -2.36626703805676        4.18649084796942
C            5.69208017327341       -2.49920741720370        5.52030939706948
C            5.27830663062111       -1.54862936123619        6.42741315138262
C            4.53298323852254       -0.47370184938895        5.98997217001732
C            4.21220431071304       -0.34551158665514        4.65905783864526
H            3.26142196877717        3.36288064950178        2.66933952816122
H            3.86009431780144        3.84212031421408        0.31837680354815
H            4.63027394952035        2.00680857639341       -1.12988157919683
H            4.80416719967103       -0.26593862135126       -0.23515498157227
H            7.10748518387251       -1.06009426897564        1.73205381382415
H            8.70407606184090       -2.97668404723530       -1.93544348724881
H           11.13555036683786       -2.77476520151018       -2.22568472259283
H           12.83744649175815       -3.95030224709940        1.87769450240833
H           14.88686421933952       -4.83736150379945        2.92142832684354
H           17.09957405596401       -4.21850785664651        2.05240666284967
H           17.30633782620837       -2.70034406590924        0.11868576470720
H           16.91586120183623       -1.07145434182984       -1.95589043295769
H           16.00575098666080        0.35638650664716       -3.75029351210283
H           13.57974989196851        0.64803248418741       -4.00301275466144
H           12.01510498759488       -0.48301473020515       -2.47051051798209
H           11.56208116115572       -1.83937285027605        1.89453850734349
H            9.13655532760177       -2.08321756026125        2.20766695871023
H            7.10803583081757       -4.35485131510626       -0.99396885463102
H            4.67493715473150       -4.61852385661085       -0.69600676493586
H            2.19378919303556       -4.51494556511458       -0.04661217272794
H           -0.03159383774002       -4.06741723737279        0.88142666691021
H           -0.20055566556724       -0.29122330358254        3.59756010958755
H           -2.39746530947283        0.13983453355242        4.55455841176934
H           -4.00646795066296       -4.02540729924208        5.51986610590919
H           -5.59363996032290       -5.16897022272736        7.02021658249324
H           -7.70743296222335       -4.09143600509047        7.65691550167497
H           -8.27511949606119       -1.84583021994846        6.80689946045696
H           -8.33699627309025        0.54210807012342        5.61700659250582
H           -7.88651384829346        2.58869974512412        4.31481669885295
H           -5.81460141174378        2.80889243552678        3.01383015896329
H           -4.15103331279898        0.98973883615478        2.98881240961115
H           -3.80486428841056       -3.58359787450664        3.08504808038989
H           -1.60642511517047       -4.05138838527808        2.12869517881715
H            1.59756725274297       -0.90136454573732        3.25117979064024
H            5.68066378063103       -3.11984357096057        3.48535463447028
H            6.26729816981748       -3.34758557075376        5.85309824442900
H            5.52968446384118       -1.64556758488726        7.47079876739165
H            4.19553321543504        0.28110458121426        6.68255436401187
