108
 energy: -23.435174775661 gnorm: 0.000613600978 xtb: 6.5.0 (97a52f5)
O            5.67602966216255       -3.91251812661407       -0.64797713917498
S            4.44728889849315       -4.13633205337675       -1.50220440944057
O            4.53862025041827       -4.84664915912022       -2.83701471857124
C            3.64548172400647       -2.56192584092582       -1.77614732240807
C            4.03428346402633       -1.87654737648920       -2.90305411921691
C            3.48852725722680       -0.64330416908054       -3.19206044765018
C            2.55558061024250       -0.09993536174282       -2.33645671379937
C            2.16867384432467       -0.79271857291874       -1.20826877996759
C            2.69275214313584       -2.04500245096118       -0.91311039594804
C            2.26577811911487       -2.76471927655212        0.37176000541589
C            0.89089895381998       -2.25829326878348        0.83331006017392
C           -0.33666158338214       -2.38116116871753        0.22665516890368
C           -1.47339439658413       -1.84367194805925        0.83895052726430
C           -2.80043887408584       -1.99271785956330        0.21149183002240
C           -3.77783666773615       -1.00308188113792        0.34137474104892
C           -5.01317353197617       -1.14925369621643       -0.23943541335054
C           -5.32778806278700       -2.29072750531982       -0.97476238548701
N           -6.61591648173528       -2.44438987064040       -1.57798232166843
C           -7.32900072744211       -1.29783947829679       -2.06568737198565
C           -6.65531084997153       -0.25199367293369       -2.69118180036035
C           -7.34224761797574        0.84405032184937       -3.16183156424653
C           -8.71394431250263        0.91580369373193       -3.01802245753245
C           -9.39681546331280       -0.11440041366290       -2.40180820826570
C           -8.71207698485684       -1.21140457479488       -1.93020826692764
C           -7.20327393590439       -3.74863129403236       -1.70332508688607
C           -7.06846737817632       -4.69147078585954       -0.68750067699337
C           -7.63515113613498       -5.94003563824286       -0.80862668082624
C           -8.34735390154450       -6.26995362842394       -1.94495987013669
C           -8.49151921141103       -5.34514993299806       -2.96051769071808
C           -7.92577579800507       -4.09593055303617       -2.84175693813657
C           -4.35520683270622       -3.28015483056768       -1.10682965301073
C           -3.11926940930575       -3.13463061862457       -0.52774345666390
C           -1.32682246557253       -1.17789079671456        2.06478521274029
C           -0.09965987073410       -1.04982714622799        2.67500336526104
C            1.01907244933000       -1.59440859305072        2.05735717518411
C            2.41556379112281       -1.64211138794956        2.48795938187076
C            3.03796291227473       -1.15859404817202        3.63241706996246
C            4.38439601509818       -1.39006541553971        3.81431305764843
C            5.14435317929282       -2.11375454283848        2.88126835664474
C            6.57663778536462       -2.40218773862719        3.08949577563928
C            7.37755589001358       -2.89323282662605        2.05093138765162
C            8.70640516361083       -3.17396657059086        2.24812388735017
C            9.30038542583718       -2.98824056523972        3.49387431012378
N           10.68000466553402       -3.30384883659405        3.70699674157758
C           11.64036789469861       -3.09061839722840        2.66241501005116
C           11.53022476057082       -1.99789585410121        1.80645762425394
C           12.45263458521406       -1.79332165892163        0.80548107342878
C           13.50285158164461       -2.67490504982491        0.64101890184509
C           13.62656404568252       -3.76314819043505        1.48221425323339
C           12.70473925438642       -3.97023689985337        2.48327249267660
C           11.10078819671991       -3.85742223591371        4.96314181430337
C           10.29940567762865       -4.77454251556670        5.63829416469598
C           10.70188680819543       -5.30684796987739        6.84205863956455
C           11.91198690622601       -4.93425173832889        7.39342887586931
C           12.71874553630937       -4.02654986565105        6.73555296930580
C           12.31816025056498       -3.49245642700342        5.53171315266638
C            8.50937552293150       -2.50762622977487        4.53440136928855
C            7.18118650283130       -2.22214180781180        4.33732720385889
C            4.49800185074592       -2.57609829746571        1.73316315412124
C            3.16157602627519       -2.33917687175477        1.53682895234477
C            2.26700501132152       -4.29115293599862        0.24078350857236
C            1.36665983007066       -5.04705939715128        0.98058479791470
C            1.36863743397356       -6.42500015884710        0.92224427691839
C            2.28458655359567       -7.07876125889198        0.12766134726886
C            3.19968719610507       -6.34368769922585       -0.59680285815017
C            3.19383833934076       -4.97003925222986       -0.53456900995842
H            4.77025285443270       -2.32007250512885       -3.55493781239836
H            3.79435426249035       -0.10792475866630       -4.07586265728390
H            2.13012199456386        0.86758906229885       -2.54696092891469
H            1.45022765356539       -0.35564647248579       -0.53721818618299
H           -0.41100955111772       -2.88021161565252       -0.72181774286642
H           -3.54821565111230       -0.10769539555067        0.89218012730117
H           -5.76141062763584       -0.38490334221157       -0.12390429006079
H           -5.58818207849988       -0.31950758790367       -2.81095099096747
H           -6.80909454979746        1.64639427250013       -3.64495263711284
H           -9.25091594668281        1.77420358747080       -3.38704640961133
H          -10.46721095794809       -0.05924036432836       -2.28942232232344
H           -9.23698198522430       -2.01413760972904       -1.44264532040175
H           -6.52174693436417       -4.42434146842844        0.19986030081543
H           -7.52392884078121       -6.66053934765868       -0.01494944420551
H           -8.79038270640507       -7.24783532730109       -2.03899669505419
H           -9.04646968675213       -5.60220072654498       -3.84784611651403
H           -8.02711615797581       -3.37343514151774       -3.63254918115750
H           -4.58551049825479       -4.16033387977602       -1.68101250892604
H           -2.38756474642887       -3.91760560282737       -0.62558139307206
H           -2.20209773900187       -0.78126245493536        2.54848535536587
H            0.00276409856337       -0.54749123435902        3.62083723070212
H            2.46380564222225       -0.61473687583739        4.36186834604330
H            4.86274338205221       -0.99545122906910        4.69210329507202
H            6.94935378010000       -3.07848720237661        1.08084792398822
H            9.30279993475464       -3.56665142683310        1.44315417596256
H           10.71529825187560       -1.30921997218688        1.94531012346827
H           12.35502637276463       -0.94409537009869        0.14919873432074
H           14.22440363787577       -2.51422483223428       -0.14314259935931
H           14.44493019815622       -4.45245651912841        1.35353918407233
H           12.78974042552916       -4.82220008838341        3.13481320568525
H            9.36289394635376       -5.06887537767279        5.19779542794653
H           10.07249454952401       -6.01637094393831        7.35379845679717
H           12.22661019093451       -5.35179262065237        8.33578300822107
H           13.66287381439400       -3.73506716238935        7.16569357705216
H           12.93777633299717       -2.77828814995580        5.01826145859860
H            8.96038522574545       -2.35780845079959        5.49973184432622
H            6.59407563501069       -1.87440146401467        5.16789951208728
H            5.02818108860146       -3.13416795056869        0.98934500949917
H            0.65968403779745       -4.54286793206701        1.61591301548351
H            0.65532143396125       -6.98967514036254        1.49995699324095
H            2.29109873231455       -8.15513151733709        0.07637413851667
H            3.92940470575016       -6.83410168923664       -1.22148908733269
