20
 energy: -3.186466428999 gnorm: 0.000377808478 xtb: 6.5.0 (97a52f5)
O            1.05916178161933        0.05580257849485       -0.04477510755930
N            2.29475048797574        0.06148931546473       -0.06798977816159
O            2.95993240258136       -0.05022093755538       -1.10384224644480
C            3.00547831097854        0.20638111404188        1.19410571220317
C            2.61858125479515        1.54104931786750        1.84981398340756
C            3.25886093115732        1.69557531420956        3.24090220068249
C            2.90754989230679        0.50207481749383        4.14873533974245
C            3.31830102790735       -0.83065276244948        3.49526515206306
C            2.67679199961814       -0.98643016264235        2.10498092808095
H            4.07769450608362        0.20779090878284        0.96197277949876
H            1.52673063014786        1.58083854975706        1.93113446145201
H            2.89146003728086        2.37423995817541        1.18976946457215
H            2.95075637862554        2.64173785734786        3.70590486273212
H            4.34788812932502        1.76276972427836        3.13332317872115
H            1.82745525359208        0.49564806594091        4.33719146349470
H            3.37709365158933        0.61240288334576        5.13551663458742
H            3.05368404953331       -1.67868934447079        4.14114372670495
H            4.40967663569649       -0.86638320708132        3.39688638841101
H            1.58755684880297       -1.05786602368573        2.19878469279421
H            2.98918579038322       -1.92162796731548        1.62316616301755
