143
 energy: -28.692728260610 gnorm: 0.000704128063 xtb: 6.5.0 (97a52f5)
C            0.44827633984317        0.57502695820795       -0.42561061817245
C            1.94156703304935        0.21309842300261       -0.51242700308146
C            2.71947852653599        0.95010172568183        0.59368391474094
C            2.08629819039359       -1.30341435813113       -0.28033553899793
C            2.49050448975505        0.63509527026073       -1.88409277514904
C            3.03173440504801       -0.27665551025869       -2.78270013678308
C            3.52609517421818        0.13174251533678       -4.00056544805315
C            3.49800807590821        1.47428578017977       -4.37039107244961
C            3.99338233512023        1.90562737811307       -5.70290523186513
C            3.37681201417298        1.42629651284345       -6.87825591377204
C            2.17767574131295        0.56026784991578       -6.76654398993246
C            2.06975520954629       -0.65635134897061       -7.44110039628182
C            0.97010799975842       -1.46790526107490       -7.25528209683491
C           -0.03169966534711       -1.09636713256202       -6.38486845733836
C            0.04618144655425        0.11031162604093       -5.69501708975121
N           -0.93000707040497        0.48030003074519       -4.71118082729138
C           -1.41532000601349       -0.51143054387838       -3.79521937257789
C           -2.71628505183777       -0.45114497738879       -3.30252261478722
C           -3.17058728580660       -1.39119654281084       -2.40490163192028
C           -2.33497541578063       -2.40810341540717       -1.98445523427467
C           -1.04191617797421       -2.48190945013935       -2.46503036535385
C           -0.58467522439936       -1.54214037370492       -3.36098927433449
C           -1.21299821625216        1.86904838977156       -4.48955082909774
C           -1.41029094599766        2.36247356837711       -3.20226634910623
C           -1.61836422224379        3.70583587786783       -2.98674253494246
C           -1.63866243435947        4.58316837917225       -4.05328622426494
C           -1.45321640325279        4.10943927306900       -5.33756087010257
C           -1.24340614935759        2.76622670953591       -5.55459459715119
C            1.14242309277297        0.92911267026297       -5.91741262138610
C            3.87816373103115        1.80766741906769       -8.13487911756982
C            3.27665759178609        1.30771294434699       -9.29474519676868
N            2.77617969254133        0.89118386412891      -10.25829783148458
C            4.97524428303319        2.68258776176793       -8.23083506163701
C            5.53512712633570        3.05476465966906       -9.55319319977106
C            4.72862745692047        3.46910446450218      -10.61408401454556
C            5.28619148060187        3.85442617083767      -11.81525500060368
C            6.65428134989868        3.86013635961154      -11.97924727723544
C            7.48952104822838        3.46674783556319      -10.93748026264855
N            8.91641740973955        3.57024722048512      -11.03267716663762
C            9.50446539529487        4.69498109479337      -11.70110337892821
C           10.73014422297360        4.57265782693059      -12.35041309136044
C           11.30941289896793        5.65867223251961      -12.96718053891397
C           10.67619120447039        6.88635543201280      -12.94696243239770
C            9.46037027092597        7.02429641038763      -12.30605895542042
C            8.87980915344698        5.94007803860973      -11.68790645181073
C            9.73614545949394        2.70961126416272      -10.22750414354630
C           10.84098268320547        3.21115597319826       -9.54374494260621
C           11.58284648633641        2.40161412300325       -8.71389122193707
C           11.23848737458844        1.07362776237450       -8.55432858651990
C           10.15117934100075        0.55780296189885       -9.23248892896310
C            9.40740930505828        1.36623066982626      -10.06218866217774
C            6.90963249101322        3.04349021777940       -9.75129681296308
C            5.56877298101036        3.18665798649668       -7.05242013366440
C            6.71964481985230        4.12354973196482       -7.12446713621754
C            6.58972315113868        5.37817147889603       -7.71465174287411
C            7.66566116881484        6.23266319385626       -7.79545071656666
C            8.91199999630093        5.87453936252984       -7.29686458748529
C           10.07832052398010        6.87187781962366       -7.37388663928836
C           10.28460047266463        7.31958158558241       -8.83324921730312
C            9.74805953475854        8.09569792801401       -6.50032045486982
C           11.39513317298739        6.25061964039003       -6.86879682962861
C            9.03909833319192        4.62320462439511       -6.70515782828176
C            7.96727813725456        3.76402488258027       -6.61899823077744
C            5.08045681736615        2.79385102189977       -5.79186181227686
C            5.71233728550144        3.32188903827310       -4.55669237996301
C            5.72572887029793        4.68830910281204       -4.28983817847046
C            6.32616579995402        5.17824990972437       -3.15284729346698
C            6.93304845337921        4.33035351679696       -2.23505020882979
C            7.59840970002318        4.92052577768998       -0.98248910278728
C            8.71841490701863        5.88706184553713       -1.41098699447733
C            6.54377329062347        5.67978984915102       -0.15631326828885
C            8.21576247672253        3.82468927354163       -0.09224989709381
C            6.91361117090760        2.96576441256053       -2.49957634387415
C            6.31752680613933        2.46932998903348       -3.63701143942112
C            2.95739588029246        2.38980548454955       -3.47049324748229
C            2.46263827408050        1.97366607847235       -2.25538146053581
H            0.02969928825513        0.27902787036074        0.53593320779739
H           -0.11449614222031        0.06624484134820       -1.20681902417942
H            0.29363143482872        1.64687866246111       -0.54095174494188
H            2.36869880999075        0.65265618025126        1.58161930678847
H            2.60111808613481        2.02957191723537        0.51000299879962
H            3.78378709065189        0.72454336514615        0.53102709522434
H            1.69274844315815       -1.58414423644748        0.69638878822599
H            3.13200870450455       -1.60778797699637       -0.31436430399909
H            1.53583028613276       -1.86934722347323       -1.03096103236064
H            3.06680409621419       -1.32167707703575       -2.53132616896090
H            3.93391102701188       -0.58698898014840       -4.69055134484657
H            2.85822075545624       -0.95513664285737       -8.11005447203787
H            0.89772788680865       -2.40183980892544       -7.78817680478478
H           -0.88430447205543       -1.73307594268802       -6.22503966847412
H           -3.36322459015141        0.33998324464565       -3.63989640347122
H           -4.17987627233154       -1.33452522195214       -2.03079918104259
H           -2.69256254993883       -3.14426179711538       -1.28283575013774
H           -0.38979520741316       -3.27523129663599       -2.13745556259706
H            0.42842078325534       -1.57897677171037       -3.72148444700732
H           -1.38850409095361        1.67764847551488       -2.37401494162685
H           -1.76305693551411        4.07382729949438       -1.98401639335302
H           -1.80033896303311        5.63527220551201       -3.88412845476177
H           -1.47076132381168        4.79323433314137       -6.17054621790438
H           -1.09898957358095        2.39193182079021       -6.55315732466421
H            1.21425209419306        1.85343360686900       -5.37544166997940
H            3.66016942245895        3.48126680757267      -10.48552837331315
H            4.64790314954895        4.15994919457284      -12.62811153816188
H            7.09379168600080        4.17286602189428      -12.91031429087704
H           11.21480968558810        3.61203347091569      -12.36611371881106
H           12.25811903216498        5.55050764530058      -13.46712043154097
H           11.13060985149055        7.73588209567551      -13.43014997227725
H            8.96765757428959        7.98267619527464      -12.28576251829330
H            7.94425046072039        6.04690777602044      -11.16750592059960
H           11.09857526881175        4.24800069880429       -9.66303398179002
H           12.43139278672944        2.80497023303132       -8.18569848406823
H           11.81824214400919        0.44036818602755       -7.90276851439759
H            9.88318740902172       -0.47895883176848       -9.11002828002892
H            8.55851194032479        0.97058212994063      -10.59227136012865
H            7.55146418969638        2.74627049870569       -8.94393763522587
H            5.63247557634350        5.66836326344757       -8.11246773758861
H            7.53708908408542        7.20012367328042       -8.24871626237199
H            9.40409825775200        7.82814572602266       -9.22309365813503
H           10.48660452075108        6.46335086036987       -9.47467922592923
H           11.12648600943573        8.00646115601628       -8.91545597048451
H            8.84465739912020        8.59537112113375       -6.84809035316070
H           10.56080174186215        8.82135317489344       -6.52115102361315
H            9.58723262716038        7.79722918067282       -5.46452908202119
H           11.66013537925628        5.36760967071059       -7.44925162221805
H           11.31900001423025        5.96556767416062       -5.81982447709881
H           12.21624466499822        6.96184331182309       -6.95617525977504
H            9.98798074527534        4.31215212107767       -6.30604924208504
H            8.08259036421839        2.79561674290729       -6.16314520902220
H            5.26162551385886        5.35940447010025       -4.99205932799882
H            6.32743725895451        6.23913775257492       -2.97234377430358
H            8.32479592796033        6.71422071207165       -2.00027734783413
H            9.46215040541211        5.36977557857664       -2.01670388216897
H            9.22391922940039        6.30822663130821       -0.54229057580613
H            6.11356899048470        6.50400340368586       -0.72366766945912
H            6.98301145802083        6.09389576539854        0.75096335085875
H            5.73149465929814        5.01427657776870        0.13509715209361
H            8.98405191071280        3.26914183735383       -0.62941288191313
H            7.45568792304089        3.12309432527559        0.25059324965363
H            8.68226850091348        4.26163976765856        0.79049460813706
H            7.37158996937850        2.27925130888008       -1.81009977181439
H            6.31368009202661        1.41044583424757       -3.83104646734645
H            2.92240861406520        3.43005009354752       -3.74502675027265
H            2.04329460966455        2.69940903025514       -1.58047363343143
