47
 energy: -10.309963391665 gnorm: 0.000610664380 xtb: 6.5.0 (97a52f5)
O            0.81204740373136        2.11162458360362        1.43326791492887
N            1.80197034661371        1.46368535308028        1.07161105970982
O            1.99707105425254        1.12556707730439       -0.10254688084731
C            2.78831711836355        1.07831667687791        2.07844312626898
C            2.60000791869289        1.44084888851282        3.41614942689592
C            3.51298275258728        1.08439673086948        4.36246380499029
C            4.65011646026238        0.34969978299615        4.00017447998700
C            4.85330997795773       -0.02306598432846        2.65233803553463
C            6.01179614356124       -0.76973753525471        2.31369433777321
C            6.91388028899814       -1.12534154687156        3.26635022673564
C            6.68331558155877       -0.74114504544226        4.59492450101920
N            5.58557092783716       -0.02945897242928        4.92760755157391
B            5.59663631708102        0.24625792689846        6.43632250263342
F            4.49343061230015       -0.33026431569016        7.04486354819269
F            5.66564819549877        1.60840682059650        6.68058347291327
N            6.88276029637506       -0.44285514793359        6.90233015698023
C            7.46804539316762       -0.98920918773588        5.78236038868936
C            8.64539265334678       -1.62119062582641        6.19517599349982
C            8.74302513021322       -1.43726743567065        7.59112284150120
C            9.71717047956132       -1.86631894792064        8.56192970890484
C           10.84196596920953       -2.60594548133542        8.18491238878795
C           11.75914406326042       -3.00742639280850        9.11803261172291
C           11.57725513493121       -2.68088318203015       10.45222892941339
C           10.48147365158822       -1.95559983188415       10.84760907261062
C            9.51964340296205       -1.52541404317857        9.92696298174667
C            8.34198810419174       -0.75066560777939       10.34246307585040
C            8.09467767791217       -0.39281333231933       11.67255666274066
C            6.97918708214077        0.32905041232358       12.02219084385843
C            6.06117381589516        0.72537328710963       11.06038864635569
C            6.26663334392617        0.39537153389160        9.74919358963233
C            7.39525574682827       -0.33644347709238        9.37739917033556
C            7.61839387277537       -0.68965162911377        8.01590217708054
C            3.89172002195249        0.36196465111653        1.70396774791204
H            1.71992560508846        2.00435892075327        3.67715967363293
H            3.38518763665320        1.35220544872526        5.39733283513130
H            6.16528424085234       -1.05287401677850        1.28701440778910
H            7.79426890372728       -1.69262236200998        3.02122632994451
H            9.33489051778203       -2.15254738644081        5.56451594326531
H           10.98027690375604       -2.85700067465093        7.14810271081506
H           12.62270240812310       -3.57699318308039        8.81649195075685
H           12.30219767501151       -2.99987742847842       11.18289929741194
H           10.36671823430170       -1.71716334536053       11.88882831716347
H            8.78509416717477       -0.68591563918289       12.44173074676272
H            6.81290876699146        0.59012657531449       13.05434035727060
H            5.18860467175056        1.28990275880816       11.34496491210128
H            5.56826987029146        0.68649705002682        8.98243015484356
H            4.01375345896204        0.09456727981924        0.66958826717977
