15
 energy: -2.967449217094 gnorm: 0.000567813034 xtb: 6.5.0 (97a52f5)
O            0.95475845226764       -0.04947325376967       -0.13742044328008
N            2.18518877675568        0.01321626358442       -0.04331342137358
O            2.88139576882444       -0.95212549362152        0.29106358731821
C            2.86082078866576        1.26362912560359       -0.37571278072191
C            3.93212325608907        1.22998905997718       -1.24293180119562
C            4.58426663060864        2.38950855173871       -1.59164678242376
C            4.16620982903176        3.59917552385935       -1.07007609412044
C            3.10740104252352        3.64939460328693       -0.19806714256480
C            2.43382523556217        2.48289165073278        0.17569130290664
O            1.39242802655075        2.50741059492907        1.06846651622520
H            4.24842212408553        0.27834239722081       -1.63731021201595
H            5.41985826545883        2.35418431663883       -2.27139204699586
H            4.67750453433447        4.50685163578461       -1.34625040899303
H            2.78903854295973        4.59087615919848        0.21309292548752
H            1.19287872628201        3.42468886483641        1.35187680174749
