64
 energy: -14.071695173649 gnorm: 0.000675716328 xtb: 6.5.0 (97a52f5)
O            1.09585868988859       -0.08398436386932        0.09533772658416
C            2.32658801205603       -0.09699608508403        0.09265419364437
C            3.33438156780965       -1.13526623247836        0.13491534715222
N            3.31788197897962       -2.51736252796377        0.19172969268634
C            4.54841825132387       -3.25652594338301        0.27229486236938
C            4.70290713635282       -4.44782416896869       -0.43025339900677
C            5.87274624591463       -5.16782912798464       -0.34571985317003
C            6.91205202773188       -4.71016380516446        0.43936808437197
C            6.77631753388207       -3.52787814616025        1.13886386627569
C            5.60550623135832       -2.80967293684527        1.05791142021167
C            2.08066255340649       -3.24365216133692        0.16106667198843
C            1.93318773773702       -4.43459809742408        0.90406134372975
C            0.77272700553196       -5.14227229867400        0.87992527110689
C           -0.32818835167998       -4.69970724774235        0.10956657111917
C           -1.55117776893503       -5.40052778767112        0.06463940291089
C           -2.59334843957953       -4.93256874700091       -0.68154097890641
C           -2.46666082343560       -3.74655482241412       -1.41340512947640
C           -1.29926070729767       -3.04445954063960       -1.39383250636996
C           -0.19817680182292       -3.50346766364603       -0.63625904157480
C            1.02015746795324       -2.80295915170271       -0.59486161322355
C            4.36707291417868       -0.12164187795953        0.09050253180868
O            5.59763384691740       -0.13493599881831        0.08828682474653
C            3.35915670030219        0.91643916968310        0.04779556512741
N            3.37391664447024        2.29822337645772       -0.01317260156594
C            4.61956063500196        3.01255843440643       -0.08447480158665
C            4.78980228577598        4.20276785608720        0.61635290510636
C            5.97036043635523        4.90525593106996        0.53511008069826
C            7.00567367949400        4.43084334904076       -0.24528331503390
C            6.85479669340697        3.24873248370342       -0.94210207905327
C            5.67343814017901        2.54761445841937       -0.86385920102127
C            2.15317430486309        3.05232149072615        0.00052700794039
C            2.03946650329460        4.23973470043873       -0.75392470326633
C            0.89835284865136        4.97833358775954       -0.73925022815920
C           -0.21585099589423        4.57228653290723        0.03206323239395
C           -1.41869242031984        5.30747426336294        0.06999517483006
C           -2.47455277093670        4.87449188612523        0.81799604711991
C           -2.38255973273188        3.69066794334186        1.55852266557162
C           -1.23534942333555        2.95586392033579        1.54591163405511
C           -0.12063658489787        3.37861502548673        0.78726910961246
C            1.07857093509366        2.64539925619871        0.75539170558362
H            3.89397623631667       -4.79388829583400       -1.04956353468178
H            5.97907593112302       -6.08794133115120       -0.89653973474828
H            7.83008743918394       -5.27109135670004        0.50100239639024
H            7.59030928834242       -3.16148299986207        1.74263195851723
H            5.50412733784004       -1.87396519213542        1.57973992008138
H            2.76064238785554       -4.76962072501547        1.50449968152242
H            0.67517528414561       -6.04695065654312        1.45446498465405
H           -1.65225271557240       -6.31035694066109        0.63053612929001
H           -3.52340336734774       -5.47605490648383       -0.70687880042168
H           -3.30087927764733       -3.38697456521148       -1.99313386025603
H           -1.20254094572735       -2.12718256927227       -1.94851729088960
H            1.11579193398670       -1.88614262816007       -1.14616998775849
H            3.98259578752758        4.56372072892128        1.22941267683331
H            6.08821007658751        5.82502453649876        1.08417540514955
H            7.93179804840329        4.97850018673099       -0.30505248684016
H            7.66570695699135        2.86902456921313       -1.54177235010731
H            5.56011839725588        1.61209638307406       -1.38357267497519
H            2.87753295285661        4.54762257353789       -1.35420910170403
H            0.82709323820340        5.88046964674431       -1.32160093625399
H           -1.49296083230527        6.21599065419073       -0.50214195379788
H           -3.38888346437452        5.44423145306410        0.83820680353299
H           -3.22730999772763        3.35875754379226        2.13948433585880
H           -1.16508044481841        2.04043046518482        2.10758372037524
H            1.14788543549007        1.73094872458771        1.31454502899300
