63
 energy: -14.102553924369 gnorm: 0.000838686473 xtb: 6.5.0 (97a52f5)
O            0.00064418856797       -2.49196963311751        0.02402476867274
C           -0.00250200726611       -1.27251752257032        0.02200468156949
C            1.27284537400573       -0.54509576260667        0.02168653600974
C            2.43562814964599       -1.30052904051260        0.05890808782706
C            3.68584797341424       -0.71073285701718        0.08658411210492
N            4.86988013360390       -1.52606423273886        0.10762158134309
C            5.23524341988867       -2.47256817143534       -0.86830782934459
C            4.59940565792233       -2.85634267725674       -2.04807792804342
C            5.19045435306468       -3.81531630263318       -2.83253384070859
C            6.40516476019032       -4.40077811073468       -2.46299272296606
C            7.04428423646725       -4.03356915512854       -1.30355350582471
C            6.45680306555282       -3.05864004426444       -0.49569607582047
C            6.85530104545193       -2.45818446060849        0.75530278742976
C            7.96076474223563       -2.65318490579140        1.58479298728244
C            8.05339438040760       -1.91840702778588        2.74195788094633
C            7.06494821005623       -0.99219174351337        3.08836741378469
C            5.97353742402993       -0.78662064816103        2.28148371374349
C            5.86594565351910       -1.52236582652645        1.10239867248253
C            3.77170089435563        0.67694530282410        0.08024262349680
C            2.62813185707878        1.43972208577834        0.03174337397771
C            1.37197846156500        0.84942044583213       -0.00450383108691
S           -0.01149466084924        1.93930630967370       -0.09431732484236
C           -1.38945637056806        0.84104384306823       -0.02660729812093
C           -2.64997169066927        1.42301247353594       -0.02995237150402
C           -3.78883835493013        0.65446303916222        0.03534327478995
C           -3.69364094661205       -0.73068669841401        0.10928867381272
N           -4.87015525428035       -1.54921026897351        0.21890628952817
C           -5.14330762936199       -2.46063629749779        1.25669406335997
C           -4.40144866459659       -2.80538316068543        2.38566016347921
C           -4.91759469874218       -3.73428311670146        3.25456169068188
C           -6.16162805402660       -4.32760795026860        3.01996802977733
C           -6.90547815141405       -3.99805051337729        1.91288878808041
C           -6.39480388708516       -3.05419971067353        1.02033381168670
C           -6.90894678122636       -2.49398402210294       -0.20678431352165
C           -8.08958393466049       -2.71001221533318       -0.91918761745474
C           -8.29203799851973       -2.01227479946206       -2.08518480088005
C           -7.33975223978679       -1.10273112920771       -2.55494316429486
C           -6.17529996390115       -0.87678458769659       -1.86391052927648
C           -5.95582714444541       -1.57444091181068       -0.67711266009455
C           -2.43939326337569       -1.31261612451886        0.10149152146915
C           -1.28167691369383       -0.55178565813702        0.03147984932808
H            2.35379368422790       -2.37218742214390        0.07473917379857
H            3.66511239805194       -2.40047491957187       -2.32315214957266
H            4.71106036930576       -4.12268863353425       -3.74734042622880
H            6.84589652358369       -5.15131828907231       -3.09813202931836
H            7.97886961546948       -4.47947999691675       -1.01255314590620
H            8.71534182290911       -3.36995874977727        1.31309284546396
H            8.89893920238400       -2.05927729585276        3.39475614240910
H            7.16100030561986       -0.43314695146636        4.00454614645747
H            5.20461047015958       -0.08154274221948        2.54201137183069
H            4.74277896099240        1.13954116975237        0.09937763597918
H            2.69440950492362        2.51514234743610        0.01577257695353
H           -2.72319152607747        2.49696379251084       -0.07950035109950
H           -4.76249940249676        1.11185180786114        0.04599705123718
H           -3.44595052060461       -2.34321063499827        2.55805326400715
H           -4.35554342508647       -4.01135197083659        4.13120758501834
H           -6.54196164853314       -5.05390147263754        3.71910918145348
H           -7.86367485282214       -4.44959241083916        1.72599461424412
H           -8.81606811126277       -3.41345698001588       -0.55262764210757
H           -9.19702790281324       -2.16948755943604       -2.64840516673128
H           -7.52263479548566       -0.57282896494324       -3.47521482220738
H           -5.43379190944430       -0.18461301126231       -2.22065215579773
H           -2.35028413401553       -2.38290932464785        0.14563073724113
