28
 energy: -5.863901174463 gnorm: 0.000575982400 xtb: 6.5.0 (97a52f5)
O            0.84066050657203        0.03017321737468        0.05766172985902
C            2.05819688723157       -0.00123468955231        0.05578371254340
C            2.85326744768511        1.21075116893348        0.05394917770235
C            2.23601732342208        2.45147866366172        0.05429122888809
C            2.95513892647298        3.64642649596832        0.05251137529422
F            2.29636130110073        4.93873770029658        0.05281615295393
C            4.36042839527050        3.52377505745684        0.05035235086616
C            4.98800634913964        2.30655670819382        0.04995766633460
C            4.25873786549107        1.11230995514648        0.05171293910986
N            4.92619972211399       -0.07568094053597        0.05109775320331
C            4.15235602127201       -1.15490233057072        0.05283024877839
N            2.80251543206952       -1.16765729277987        0.05513680113382
B            2.32279455200434       -2.61478401823561        0.05649527501547
F            1.61155897321897       -2.90393571776548       -1.09635821548518
F            1.61579525281246       -2.90315588286721        1.21214611664514
N            3.62592407536540       -3.40847092787452        0.05436781496776
C            3.83463090760705       -4.73223031815392        0.05418199463717
C            5.12244089667889       -5.20854595992371        0.05186997780932
C            6.18782971347790       -4.32134580145298        0.04974549751772
C            5.96043199893161       -2.96539319333635        0.04994512801433
C            4.65073493435173       -2.51907765880128        0.05232791695494
H            1.16052599934115        2.48137337332468        0.05596894784924
H            4.94694757436188        4.42612614769926        0.04896305276582
H            6.06225347504953        2.24455895649367        0.04825080268188
H            2.97822982507795       -5.38493835302856        0.05584830945795
H            5.30361057662993       -6.27060110893468        0.05168583877615
H            7.19805241748153       -4.69602529368792        0.04790936735487
H            6.76774264976842       -2.25418795704844        0.04828103837028
