87
 energy: -16.435407349187 gnorm: 0.004747203596 xtb: 6.5.0 (97a52f5)
O           -0.98896245012555       -2.63910338807241        0.42967854350632
C           -0.81545228605482       -1.44942827042383        0.20591297614121
C            0.53523064554126       -0.88048885938569        0.27518000177272
C            1.61806876815435       -1.74626156471747        0.39724458217120
C            2.90672855355778       -1.27591879512678        0.44085177123568
C            3.16540636346828        0.09546585135515        0.37431266621777
C            4.54259987378641        0.62361683872228        0.39633894741775
C            4.83304238314835        1.84026828857376        1.01867530634688
C            6.10671353792878        2.35191207937936        1.01107062150245
C            7.14690905509433        1.67588931044624        0.37511786414852
N            8.46662990138977        2.22552499535066        0.34704235403533
C            8.93273728940581        3.03077633589914        1.44138002980786
C            9.67072275571264        4.18816752847617        1.20821781001887
C           10.11753259723235        4.95885246729585        2.25729734190183
C            9.83857329397988        4.58694628382869        3.55788380052728
C            9.10971382782118        3.44000991627016        3.80527367616828
C            8.65983178963335        2.66877952678505        2.75789165564783
C            9.32462218444407        2.00800305926119       -0.78285476768530
C           10.69562919211628        1.83838674143199       -0.60854299532995
C           11.52228502281682        1.63898754905930       -1.69076979562340
C           10.99654976130176        1.60748362407251       -2.96748840591886
C            9.63927247934946        1.77805392548115       -3.15752779637584
C            8.81061768710823        1.97754869372399       -2.07667101173242
C            6.86266918712485        0.45653244574300       -0.23766351569349
C            5.59004003099329       -0.05893572186164       -0.22675330237526
C            2.07813777081713        0.96024839592917        0.26340434472642
C            0.77717679066350        0.49652950359883        0.21456079864099
S           -0.49104872363655        1.72234029221442        0.09468373448803
C           -1.92221040135312        0.75353322927761       -0.26196536716865
C           -3.05543808360343        1.45550440644540       -0.64903832190431
C           -4.24782505492227        0.90912788463126       -0.99153203312102
C           -4.56039264116275       -0.43231311449832       -1.08200366811066
C           -5.20941487617627       -1.19108306367121       -0.20423657136583
C           -5.13614355525174       -2.50241048833595       -0.13539859178199
C           -4.38766655014097       -3.25950326340355       -0.92263769241307
C           -3.97324565117433       -4.49982998254523       -0.67834606679568
C           -4.44544092032073       -5.22693756370380        0.33751200354436
N           -3.97048033976908       -6.39083089217209        0.66515696502986
C           -2.96332008054425       -7.02447697599842        0.07706369567999
C           -2.44943993140530       -8.25522251596033        0.46469276892809
C           -1.41265918999414       -8.90317624149949       -0.18610217699273
C           -0.78595105247825       -8.41078134784375       -1.25816322388164
C           -2.05652910012267       -6.16250334257953       -3.84357409241830
C           -0.89386575656884       -5.66004505063431       -4.00505737188432
C            1.19728444944150       -5.07418979897494       -0.88871883973014
C            1.16365613950733       -5.85003198175898        0.16516249715985
C            2.01048321648711       -5.72142223502772        1.25415388057695
C            2.95639736488356       -4.78374971830635        1.34552469406713
C            1.06171775308445       -8.40267450528014        3.80032910940532
C            1.00599876204703       -8.98887143810381        2.64853472725439
C           -0.70922367592179       -4.55896568433304        2.95363072493562
C           -1.18915176403777       -5.76099654637644        3.01376215709541
C           -1.90269563030816       -0.59728305073537       -0.14513700106310
H            1.41991380676244       -2.80286379478726        0.43939691939350
H            3.72775467648131       -1.96291398980806        0.54715021786512
H            4.04424155623558        2.37335075904163        1.52031217014633
H            6.31446235724640        3.29712031744712        1.48101558690332
H            9.87713760788635        4.47590470891359        0.19216253706139
H           10.68515806167887        5.85427145193814        2.06359286544931
H           10.18982541914018        5.19069981757573        4.37844355432639
H            8.89369642104067        3.14755482918828        4.81979875302807
H            8.09927300788387        1.76917333451434        2.94301477113928
H           11.09803698392870        1.85833163885260        0.38913571840491
H           12.58147543315049        1.50752961137463       -1.54133813119832
H           11.64470281616576        1.45131347963282       -3.81416069819592
H            9.22847264254522        1.75715490022069       -4.15367327607884
H            7.75448104240891        2.12509275479380       -2.21988570765416
H            7.66113069451214       -0.07968908107387       -0.71974170168136
H            5.38483810142556       -0.99110499584369       -0.72376331236827
H            2.24986549765855        2.02010171112958        0.19882808204356
H           -2.97667686165808        2.52991971878315       -0.68228477832281
H           -1.27104672426821        4.96970311644360       -0.76556618967739
H          -12.57463772109010        0.25634601998120       -3.26627576710521
H           -3.19535758943740       -4.63169654135702       -2.36574831471723
H           -2.50311069038006       -6.54993704805964       -0.77364903062959
H           -2.90191346289653       -8.73334320485890        1.31774218187766
H           -1.10732541299964       -9.87052933759073        0.18189297499723
H           -0.00618747273227       -8.89596487686536       -1.76831907344109
H           -0.33718926990851       -5.77552167394149       -4.88877907839451
H           -2.42176695660041       -3.73408921846497       -0.07617919891884
H            0.42125195756096       -6.63242378068013        0.18379291907345
H            1.89602904002756       -6.41637244854182        2.07118137705170
H            3.60108845057952       -4.66982844365211        2.16727410658271
H            0.42943948823369       -7.61670057243302        4.09862605003430
H            0.30649186906639       -8.74740489778637        1.90066016866113
H           -0.80507948718980       -3.93317770185581        2.11195464407595
H           -1.70878597606199       -6.22518032556763        2.22548923397194
