178
 energy: -33.306130765766 gnorm: 0.000541464863 xtb: 6.5.0 (97a52f5)
O            2.07577880150960       -1.89854399081306       -0.16827471932288
C            2.71067401211296       -1.43119757408387        0.75947412976384
C            4.02851799148640       -1.98643250704779        1.12996580780362
C            4.15185535611932       -3.36693849230324        1.21650348014735
C            5.34733053318209       -3.95669969812708        1.55599373474776
C            6.45213900395266       -3.16786248066929        1.80799563231144
C            6.35223135342288       -1.80061654369364        1.70961752215855
C            5.15026938281846       -1.17138754873307        1.37618434346816
C            5.19871902594947        0.27798650626886        1.10656496438222
N            6.36376108605799        0.68232563429379        0.62866890877107
C            6.45423099679948        1.98195918887268        0.30115253193518
C            7.60290944549399        2.42179748037294       -0.34958042576985
C            7.75067763724205        3.70658927127470       -0.82432611820197
C            8.88534410372167        4.01944810435743       -1.67338345732402
C            9.71284021216338        2.94191869862599       -2.07261793570519
C           10.20515736206191        1.84997674251764       -2.28452007755504
Si          10.54342265503190        0.08947896887710       -2.27171823585872
C           11.11020036718250       -0.41879705555775       -0.51859041352148
C           10.42828023623546        0.40329399398186        0.58730939018570
C           11.02913737837603        0.09307705680343        1.97088713173269
C           10.94186467723443       -1.41274830954469        2.28295789343893
C           11.61433703127129       -2.24355713121995        1.17393193803160
C           11.00355202200182       -1.91891412169049       -0.20213342535329
C            8.99114299583221       -0.86727216804319       -2.85424990237171
C            9.27034970529886       -2.34268956073309       -3.18753207193472
C            7.99970177972273       -3.07786752762140       -3.65494974900475
C            6.87861958479284       -2.96137735511249       -2.60680937443672
C            6.55879716788575       -1.48474619518499       -2.32261298801949
C            7.81827544692621       -0.72363998305144       -1.86792402595773
C           11.96504105565951       -0.22604574347159       -3.49984375909797
C           12.89199115091568        0.99801892320096       -3.58354087182138
C           13.99808039811693        0.79791751591436       -4.63688699816215
C           14.80561533094579       -0.48262963401406       -4.35401928890192
C           13.87886615929372       -1.70991621264581       -4.27001684734280
C           12.77919463403216       -1.49774884542456       -3.21264817659888
C            9.02098840014795        5.30063244754721       -2.10513011193532
C            9.99461122279581        5.90863172085797       -3.09913937186603
C            9.39701626523712        6.49702747791125       -4.33990215531393
N            9.81042388758892        6.77775038623488       -5.51468991559880
C           10.17314866507512        8.10758657641088       -5.64957990657819
C           10.01119945869978        8.64690721971947       -6.98674064965228
C            9.87500912381341        7.72470567257655       -8.03727329452034
C            9.56300948144393        8.11531144469856       -9.31410096948195
C            9.34719095557417        9.45274890451650       -9.59303597389644
C            9.45503482149237       10.38431354506529       -8.58713521334931
C            9.79379571635699       10.01771579860741       -7.29122469103163
C            9.86244847100776       11.09623773475873       -6.28343669459512
O            8.98844143616635       11.94440474893292       -6.21317557456936
C           11.07059209043157       11.17104743674782       -5.43559466073963
C           11.79972269565390       12.35242799977532       -5.39924016786829
C           12.93350142476515       12.45956023317835       -4.62706964137643
C           13.34964723050429       11.38496091679079       -3.86399121483775
C           12.62668982080175       10.21453398107653       -3.87342819771005
C           11.48470305997399       10.07501599459388       -4.65994700426135
C           10.66972778758347        8.85035146205076       -4.51863476079387
N           10.50603461472929        8.43069787059786       -3.27852512767770
C            9.54958346135603        7.40876049396599       -3.14626603067259
C            8.38429470961097        7.54971950408026       -2.21697985866567
C            8.05761118134698        6.32031885603021       -1.71177097924153
C            6.86283135816963        5.99441404164532       -0.99946925009269
C            5.86144900886877        6.96845516553727       -0.95762603057652
C            5.10273256216931        7.89804258271254       -1.17662382790617
Si           4.35103084161745        9.34708975143754       -1.91414961683772
C            2.47009372173651        9.12039526425628       -1.74763391558565
C            2.01674197281812        9.26143706669521       -0.28678705071647
C            0.51507834553346        8.95458382907138       -0.13579021607195
C           -0.32453069910509        9.85382044121546       -1.06280243282503
C            0.12565404551797        9.70840202400782       -2.52886494931623
C            1.62982928667691       10.00696344030507       -2.68011245078808
C            4.95173129557757       10.84590785918792       -0.90030554135419
C            6.47776412637694       10.99994754247342       -0.99612407068724
C            6.99291383347143       12.11522801236595       -0.06733141704323
C            6.28076608363181       13.44887439125245       -0.35987993147214
C            4.75257971607878       13.29231815728363       -0.24891855213899
C            4.24273418480148       12.17943958182975       -1.18430967966213
C            4.79538477878815        9.47031251266850       -3.77267610253611
C            4.70170900344488       10.88383314950779       -4.36822450243110
C            4.94855059106836       10.86834835932613       -5.88948502318073
C            6.31600514486260       10.23951486392598       -6.21986457248825
C            6.42841349609402        8.82598806592109       -5.61955461694107
C            6.16339188549914        8.85402856556148       -4.10289632870853
C            6.71344998816544        4.66410741197037       -0.54935949889865
C            5.55808934071651        4.22097898299540        0.11798193835568
C            5.39641198972402        2.89981909470076        0.52463471424914
N            4.23842321354898        2.49201216664910        1.09638282529599
C            4.12528100931164        1.19575488795781        1.34764019970967
C            2.83701866129960        0.80212716991607        1.94962463765697
C            2.20378877945143        1.72793100079597        2.78003839058639
C            0.94514694535915        1.50419356912034        3.28600364860557
C            0.26668100030738        0.34800254470174        2.95559326392865
C            0.85981829611165       -0.57720551138572        2.12862671027312
C            2.13902666271326       -0.37815143759842        1.62598199607143
H            3.28631651950027       -3.97132589041637        1.00440519629995
H            5.42219910584237       -5.02985449510196        1.62030299581797
H            7.39441037191177       -3.62369498608444        2.06474063177650
H            7.22206016998666       -1.18548057235202        1.86409887824826
H            8.37811225490085        1.70803344775144       -0.53805146019820
H           12.17230747905137       -0.14302894031732       -0.53821891695116
H            9.36020525174170        0.16280075705247        0.59921900287338
H           10.49492032435962        1.47534203614715        0.36152716115513
H           10.53029284595657        0.68327253028665        2.75218324091496
H           12.07941868912826        0.40877353561569        1.98999438872459
H            9.88797699974778       -1.70538206852490        2.36720648248383
H           11.38747328248701       -1.63527874976772        3.26249814722933
H           11.53982236180514       -3.31837426725598        1.39031751809629
H           12.68852950329606       -2.02211411366465        1.15489538161779
H            9.94678915116622       -2.20573874253006       -0.20013895592115
H           11.47513902254184       -2.51736971509734       -0.99019096904295
H            8.73607678190767       -0.34043872741387       -3.78268380723766
H            9.67147768715666       -2.84324838096453       -2.30187625795341
H           10.05633306195395       -2.41419476696732       -3.94985961097209
H            8.21736183953409       -4.13158381667797       -3.87835692941610
H            7.65710670805303       -2.64221263110207       -4.60154786293922
H            7.19721443942243       -3.44797889976298       -1.67649012380456
H            5.97862798790825       -3.50316110633789       -2.92946889776642
H            5.76156103200183       -1.39738753855074       -1.57045200989465
H            6.15673880255115       -1.01642613929656       -3.22928493188661
H            8.12739459724029       -1.08097278370776       -0.88101540499953
H            7.57575227159032        0.33633077777430       -1.74031644219500
H           11.44658441290619       -0.34231191315332       -4.45974806718464
H           13.34264949969408        1.16557358227819       -2.59851411124825
H           12.30772499437788        1.90311190043411       -3.79581727834209
H           14.65874644684925        1.67501444757708       -4.67859745147895
H           13.54208655001374        0.72740996412737       -5.63202883710387
H           15.34499586322805       -0.36935891532573       -3.40550962495767
H           15.58214596316666       -0.63117586581779       -5.11732121029581
H           14.45511024855037       -2.62079849351221       -4.05585341423854
H           13.41297041352676       -1.88103863469107       -5.24821524718009
H           13.24112650973139       -1.40470218442346       -2.22360635963859
H           12.12239160011647       -2.37356150717263       -3.15123420651944
H           11.06454185172476        5.68863602072942       -3.01606018893894
H           10.00176527002594        6.67999386063049       -7.81173380008623
H            9.46921911596402        7.38015141180371      -10.09654316211252
H            9.08946248945207        9.76252070693607      -10.59252004642641
H            9.27274115052639       11.42595381682213       -8.79024892509953
H           11.45691201897926       13.18627810828021       -5.98769123412172
H           13.49188476803104       13.38117059206264       -4.61226936986015
H           14.23116945011469       11.46949059293390       -3.24985191895345
H           12.92366877364839        9.38758760452520       -3.25132560399924
H            7.85073676914577        8.45896342227609       -2.02854863214759
H            2.33951396971855        8.07456501124635       -2.05531207348175
H            2.21709012227964       10.28361052562602        0.05203126183756
H            2.62215606274656        8.61370852896009        0.36126976414602
H            0.19729942545504        9.06603962625649        0.91018009019430
H            0.33289989662403        7.90253119487807       -0.38707546334550
H           -0.21256645245531       10.89980290696990       -0.75163470760299
H           -1.39535272577236        9.62969456588386       -0.95907820939562
H           -0.46803313438722       10.35995317349470       -3.18508135847656
H           -0.07710963775577        8.68609365442827       -2.87094782425110
H            1.82086809491569       11.05922505955577       -2.44789446914450
H            1.94834226326577        9.87277716633461       -3.72161512100905
H            4.70134823914591       10.53465475420624        0.12227443770949
H            6.75169863539124       11.22836971672415       -2.03143098563987
H            6.96549604371129       10.04482960873343       -0.76419512708848
H            8.08221324688008       12.22610284065461       -0.16104538771453
H            6.81603477830216       11.82912628094532        0.97672469443938
H            6.53855864797824       13.78216202327783       -1.37275580250717
H            6.64252607031057       14.24053870262711        0.31096144438876
H            4.24616384406165       14.24390636334202       -0.46247879233126
H            4.48726490061663       13.04533942509128        0.78641720859333
H            4.42153635724023       12.47050899200767       -2.22334283408105
H            3.15641545107213       12.06439322690734       -1.09268649516301
H            4.02084712300126        8.84454185091796       -4.23418238840354
H            5.45971002038627       11.51546731284638       -3.89361544984374
H            3.73501741321903       11.34299061399326       -4.12777601285559
H            4.87500748132793       11.88211252246670       -6.30683330844779
H            4.15549871262666       10.29035436310170       -6.37939556757803
H            7.11521294418090       10.87219383078580       -5.81360783510361
H            6.48749055765342       10.21853190496125       -7.30498329992870
H            7.41327175215637        8.38808640949211       -5.83339107184634
H            5.70138618777004        8.16371465274378       -6.10484876076194
H            6.94027048301310        9.45548290282948       -3.62012030698097
H            6.23950127087370        7.84743622453655       -3.67267256406279
H            4.75612061957718        4.91273038541719        0.29467636150188
H            2.71970884258492        2.64582852720446        3.00437349022092
H            0.48220234360282        2.23704142270900        3.92639278528621
H           -0.72542275237879        0.17398951613435        3.33888437188572
H            0.33643764862429       -1.47689244167532        1.85264242782675
