28
 energy: -5.948774354637 gnorm: 0.000904401104 xtb: 6.5.0 (97a52f5)
O            0.96585310471909        0.03177486093502       -0.06638699983159
C            2.18364094202455        0.00625418199642       -0.06856357767267
C            2.97628699762936        1.22035035506530       -0.07060446914022
C            2.36052005254289        2.46366301586549       -0.07008324104106
C            3.11034076699175        3.61279063228392       -0.07191996586532
C            4.49484202152720        3.53617567010198       -0.07431399492563
C            5.12105296533969        2.31748462014443       -0.07486056875653
C            4.38513201651363        1.12413276086764       -0.07302881054721
N            5.05297094958270       -0.06365393411461       -0.07365075137912
C            4.28032966100715       -1.14377137332641       -0.07176938266123
N            2.93058295722425       -1.15861233176097       -0.06929499452069
B            2.45305826539480       -2.60695620510012       -0.06785051066895
F            1.74261234630982       -2.89745641698829       -1.22125993488352
F            1.74695159524474       -2.89658016992159        1.08843917354910
N            3.75811480454414       -3.39855987220230       -0.07000052636155
C            3.96927339833015       -4.72195676811224       -0.06994638428202
C            5.25792029381714       -5.19597727636285       -0.07218510607411
C            6.32161609112401       -4.30668388728386       -0.07446564470895
C            6.09151186531686       -2.95115611481697       -0.07449501895723
C            4.78106159220584       -2.50713821241208       -0.07220497285763
H            1.28372880969893        2.50009781529393       -0.06818739718434
H            2.62343416229185        4.57400229092355       -0.07149520258060
H            5.08022301883641        4.44066667297279       -0.07574481496996
H            6.19501934296859        2.25222982382292       -0.07670492840265
H            3.11410887365327       -5.37612138264822       -0.06813387779121
H            5.44105533785700       -6.25763185398041       -0.07216979586187
H            7.33250826840056       -4.67943448615411       -0.07622516268475
H            6.89739949890362       -2.23847241508834       -0.07624313893849
