43
 energy: -9.497123617772 gnorm: 0.000763378301 xtb: 6.5.0 (97a52f5)
O           -0.03203285352552       -2.50765659121523        0.44942660772822
C           -0.00872108975361       -1.30552353677584        0.24805102934607
C            1.27923272926921       -0.60695472415404        0.14105326041195
C            2.43812926803067       -1.36718779583107        0.26032471700087
C            3.68272371388315       -0.79055145043600        0.17233179517479
C            3.79392939921110        0.57025374786097       -0.03853205197148
C            2.65737853978119        1.33902813771204       -0.15823556275609
C            1.39495259208763        0.77025966562327       -0.07080199266634
S            0.02929335008177        1.87183451875908       -0.23736509692484
C           -1.36468176272798        0.80378745761640       -0.08948278445871
C           -2.61660792891833        1.39566692843385       -0.18688991404164
C           -3.76673786162411        0.64835539784665       -0.08482293854912
C           -3.69257390667616       -0.72530288608207        0.11710111166179
N           -4.88050805722009       -1.52360520617502        0.23891521278544
C           -5.14386993227827       -2.45191566548277        1.26481196215281
C           -4.39471114432786       -2.81448710531311        2.38357585794146
C           -4.90254245537996       -3.75963080735459        3.23937235538154
C           -6.14688391069978       -4.35087330535395        3.00313866483781
C           -6.89953102366313       -4.00213839359154        1.90814391839803
C           -6.39673237850300       -3.04249705742024        1.02863704724608
C           -6.92123214250567       -2.46395343129336       -0.18547891679786
C           -8.10481440563362       -2.67555562142316       -0.89372731366911
C           -8.31610001432758       -1.96531719987951       -2.05038575915286
C           -7.36825700239721       -1.04968980546458       -2.51630185992568
C           -6.19999459623634       -0.82972666313965       -1.83006197913350
C           -5.97246653408527       -1.53744322717626       -0.65056026055310
C           -2.44566103289423       -1.31507672205832        0.21295657403786
C           -1.27661467536544       -0.57554345204496        0.11679565093352
H            2.33357974020229       -2.42647974884687        0.42443246088357
H            4.56821404263015       -1.39715579082183        0.26738664097217
H            4.76677320232586        1.02817788585918       -0.10872346182641
H            2.73471471571257        2.40153239142900       -0.32168162739174
H           -2.67365101467461        2.46056201110822       -0.34140082142498
H           -4.73394120594427        1.11531916128525       -0.14465990262423
H           -3.44047852255756       -2.35195569532413        2.56120907973807
H           -4.33374862787517       -4.05091930712278        4.10697862984239
H           -6.51996611783124       -5.09077564359226        3.69175568010839
H           -7.85836769469124       -4.45185715729153        1.72031058669766
H           -8.82705407598759       -3.38547557278625       -0.53137421605304
H           -9.22407773672573       -2.11765057870684       -2.61008296346375
H           -7.55754297012694       -0.51059206567450       -3.42989544722587
H           -5.46102774757117       -0.13544255284726       -2.18750450469852
H           -2.36976087048497       -2.37710254285531        0.36017053202521
