30
 energy: -6.649361687147 gnorm: 0.000850534678 xtb: 6.5.0 (97a52f5)
O           -3.03218680049711        0.43077494686530       -1.31567792093541
C           -1.94154298902150        0.08069386002646       -0.88984118031416
O           -0.86757580462792        0.94427151613472       -0.84451117066883
C            0.34895102394562        0.50033689422635       -0.35348301651432
C            1.42966761922292        1.38479004284162       -0.31032928912209
C            2.64943037903078        0.98111145883054        0.16483260766254
C            2.83013315248289       -0.32054578144576        0.61329476899733
C            1.78747661163003       -1.20930693306462        0.58440387570092
C            0.53342239544671       -0.81745427943489        0.10355156400527
C           -0.57367314763234       -1.70132710083756        0.05777821016013
C           -1.77378902679129       -1.29848133623480       -0.41187912597840
C           -2.88364302212757       -2.24577738631307       -0.43791310487177
C           -4.16129168773870       -1.98410565565967       -0.91217264083509
N           -4.89175108692737       -3.12863536276935       -0.76116195696782
C           -6.19833596518088       -3.50923988813256       -1.04779297297733
C           -6.61176111368893       -4.76340795653903       -0.76235433138699
C           -5.72923880396296       -5.69866515463808       -0.17452442184288
C           -4.44771622699074       -5.36062041532397        0.11312191416574
C           -4.00733236549264       -4.05266032128689       -0.18524904815800
N           -2.80212639605194       -3.51888583241361        0.00553660302779
H            1.27612322311177        2.39020825665708       -0.66054700233976
H            3.47253922182846        1.67603861241917        0.19074783426925
H            3.79283387484065       -0.63115557140938        0.98415366231152
H            1.92319749226213       -2.21905264441399        0.93132780920126
H           -0.45919306015325       -2.71244693867974        0.40266652950956
H           -4.50020337537463       -1.04967178568443       -1.32550028270072
H           -6.85321372262719       -2.78384339144752       -1.49622220924277
H           -7.62414033605258       -5.05808959551453       -0.98274661770130
H           -6.08357409172471       -6.69195292003987        0.04628216948919
H           -3.76253597113656       -6.05893933671813        0.55882874405666
