70
 energy: -13.670873150288 gnorm: 0.000523335632 xtb: 6.5.0 (97a52f5)
C            1.99635951287400        0.97279980550613        1.21594558559288
C            3.38789525763968        0.45405886175255        0.80789158593673
C            3.57626518171079        0.61512560228649       -0.71186619775570
C            4.45255311151154        1.30854542133632        1.52290712330228
C            3.50438234449560       -1.03245839732318        1.18041383084499
C            2.61497358950876       -1.94943691206443        0.63594053838671
C            2.67970611619696       -3.28783662555283        0.95641152586333
C            3.64428084283598       -3.76456095905393        1.83860627531425
C            3.70527780635423       -5.20028037577319        2.19909360013827
C            3.48128924988216       -6.18224459924217        1.23639619156571
C            3.51019703244083       -7.53725753276130        1.55596857654141
C            3.27212407891225       -8.55916557207139        0.58026966158814
C            3.28964435788408       -9.86692189823997        0.91794447853321
C            3.54718523619251      -10.28324169206788        2.26451547388382
C            3.55258779142839      -11.62367186792020        2.64100095525619
C            3.79694447373954      -12.01104968536693        3.95666022957969
C            3.77158812983826      -13.44381965157033        4.33352458808034
C            2.77518713743279      -14.28924049564646        3.85626760271611
C            2.74804463897339      -15.61977528949305        4.21217960737691
C            3.71154157529196      -16.16233583852157        5.05232248363113
C            3.64202537461636      -17.65114480399309        5.42742083609255
C            2.33566168679240      -17.91912201536459        6.19692764969353
C            3.67270973667638      -18.50429778296818        4.14528953887255
C            4.82757837876026      -18.07326337221681        6.31677559105747
C            4.70420348174114      -15.31537754390904        5.53064234127207
C            4.73534360533863      -13.98271641433522        5.17992874737102
C            4.04919898603425      -11.03130791366455        4.91440200966263
C            4.05425894639201       -9.67747993355246        4.58828131593216
C            4.29967350814437       -8.65529281054442        5.56192721378201
C            4.28054809336692       -7.34745598106505        5.22460866578600
C            4.01498748964579       -6.93077099037038        3.87963127000084
C            3.97251811392006       -5.58890390783948        3.51018583774675
C            3.77728662763077       -7.91826719729851        2.89325582632860
C            3.79673721286484       -9.29654305799828        3.24891568151790
C            4.54073107674710       -2.84864903117943        2.38059567504037
C            4.47066779535866       -1.51074563217200        2.05700720517857
H            1.89147318807240        2.03242276376280        0.98373207088133
H            1.83662951288063        0.84445931409039        2.28632739955062
H            1.20452806597274        0.43764149935733        0.69336432347818
H            3.51350878982031        1.66335999444784       -1.00349924952568
H            2.81384159324963        0.06921724458848       -1.26612987281004
H            4.55016085131909        0.23625972283306       -1.02112385781242
H            4.35019957631686        2.35946235010793        1.25255724368462
H            5.45875791940311        0.99434002382798        1.24648433295429
H            4.35118803718689        1.23658527079770        2.60558693478533
H            1.85666162466563       -1.60665238410411       -0.04658300598892
H            1.96839804095541       -3.97764040132540        0.53561464205215
H            3.28663563363290       -5.88972315881367        0.22061060025493
H            3.07399242260489       -8.26376732151761       -0.43561518919370
H            3.10572270316382      -10.62201816734895        0.17325385146027
H            3.36815056666361      -12.37737805311775        1.89710654920260
H            2.01170217512272      -13.88630119741260        3.21302840831740
H            1.96152266322800      -16.25036560743205        3.83528369583519
H            1.46312590779156      -17.67864853355949        5.59069019611648
H            2.29112865485329      -17.31395607060979        7.10218047270188
H            2.26171920471727      -18.96691972290307        6.48748862215550
H            2.82303771832556      -18.28402745802978        3.50043008587603
H            3.64123453598563      -19.56729758471467        4.38363362053810
H            4.58287778842472      -18.31277374458691        3.57736027662980
H            4.83197378622854      -17.51942310637878        7.25526152733638
H            5.77732880747602      -17.90489341215176        5.80950218406810
H            4.76819027577805      -19.13360127558876        6.56202001243982
H            5.46549497350881      -15.69887479551802        6.18642522479725
H            5.51794796900619      -13.34453762891888        5.55320887934887
H            4.22689460816251      -11.32571517068727        5.93282480747003
H            4.49883034531279       -8.95144851146129        6.57739651730342
H            4.46441202413106       -6.59159006012918        5.96853140423181
H            4.13224099446287       -4.83571866041165        4.26016170799483
H            5.30319387080376       -3.20054827770771        3.05422186716103
H            5.18047759158686       -0.83119178912250        2.49411459504489
