16
 energy: -2.371163611763 gnorm: 0.000561013788 xtb: 6.5.0 (97a52f5)
O           -1.80344835218172       -0.04549743843921        0.43329101751413
C           -0.80281078568166        0.02998555276451       -0.57876135003862
C            0.12454613766148        1.25512062578578       -0.38529587401585
C            1.33437749982626        0.75311754541848        0.43387658282190
C            1.32710657281450       -0.79719951995465        0.36064104718611
C            0.12652849818869       -1.20615892909747       -0.51981485453095
H           -2.32515840119248        0.78859042593113        0.45682883835876
H           -1.32250060291770        0.07536091816773       -1.55096868343832
H           -0.40651823242350        2.06302509771585        0.12876136241256
H            0.44522959412563        1.65255544111562       -1.35511801412820
H            1.25871251425612        1.08846391147589        1.47571815371460
H            2.27438171341831        1.16924814564633        0.04983961910543
H            1.22782461233941       -1.22718697975764        1.36506619888025
H            2.26992207215049       -1.18682757626754       -0.04385198079087
H           -0.41622597967669       -2.05832719073125       -0.09762432956287
H            0.45340313929283       -1.49664002977355       -1.52479773348805
