9
 energy: -0.996269834116 gnorm: 0.000380371562 xtb: 6.5.0 (97a52f5)
O            1.06378013229362        0.04305042855539        0.06860593101658
C            2.47223325048428        0.06372734009028        0.08271790025740
C            2.98834408877618        1.22970785928740        0.87872785660334
Cl           2.39858001282147        2.72063248853197        0.16005011259911
Cl           2.39858679514813        1.10335739156221        2.52899975858008
Cl           4.75264986555837        1.22523830949363        0.87567149914631
H            0.71852127761305       -0.71708081116826       -0.45033340106696
H            2.84283522214369        0.13294169180224       -0.94936976631648
H            2.84283935516122       -0.87227469815487        0.52305010918063
