9
 energy: -1.146930168011 gnorm: 0.000469909525 xtb: 6.5.0 (97a52f5)
O            0.97986910089141        0.08355453781802        0.01637388712051
C            2.37790704758238        0.09324373907250        0.01283100043072
C            2.89109008884221        1.45269635549347       -0.48436046338393
F            2.43839275506435        1.65412021263963       -1.73071242487373
F            2.43839204441570        2.41069308496016        0.33795719332486
F            4.23205581844938        1.43075784864966       -0.47633646455967
H            0.61118093964092       -0.77041254917652        0.32870018349766
H            2.74660124069097       -0.69540435036151       -0.65420995170535
H            2.74660096442268       -0.07896887909542        1.03128704014891
