19
 energy: -2.695950198072 gnorm: 0.000756420210 xtb: 6.5.0 (97a52f5)
O            0.96514279187253        0.07412556297332        0.09970873679158
C            2.37988910484409        0.07834675088690        0.08405117775198
C            2.93152368028257        0.19195918302521       -1.33069799494480
C            4.45782285500348        0.19468934752072       -1.38064663719781
C            5.00782433134632        0.30065845179958       -2.80162062850514
C            6.53014402596286        0.30118007887270       -2.85015070320364
O            7.04519937908393        0.42399094740465       -4.15870011533036
H            0.61912158040979        0.00440695940581        1.01890724988404
H            2.74103497068451       -0.84307952552122        0.55821702782930
H            2.73817450290040        0.91412090885145        0.69836039854624
H            2.53802129428823        1.10192249675308       -1.79724997524906
H            2.53683256961533       -0.63143823410501       -1.93628133869628
H            4.84333873961263       -0.71428573732070       -0.90362880558205
H            4.84504158617033        1.02108615108444       -0.77282004820377
H            4.63217507731501        1.21124702890209       -3.28155767418020
H            4.62296750712823       -0.52409492017707       -3.41170725886121
H            6.93983014456501       -0.60848991354022       -2.39330536052311
H            6.93267446676342        1.14036506508488       -2.27032953402300
H            6.69844139215133       -0.29769060190059       -4.73037851630273
