16
 energy: -2.249489249687 gnorm: 0.000596734871 xtb: 6.5.0 (97a52f5)
O            0.88818063782534        0.04523145828317        0.01781189184872
C            2.30268448911899        0.05655808541053        0.00805297906865
C            2.85313233607963        1.07030538598442       -0.98580494169897
C            4.37862933892250        1.11439900058262       -1.01329809188501
C            4.92416987057063        2.12720713836710       -2.01141956856256
O            6.33450907860534        2.15144277193172       -2.06204567583550
H            0.54083512153278       -0.61663261445297        0.65866372745421
H            2.66295339083044       -0.95034310945065       -0.23883561996254
H            2.66090608274279        0.28474296458713        1.01998948210912
H            2.45250565405131        2.06127553426277       -0.74546521271250
H            2.46495535202538        0.84061777965884       -1.98421951749324
H            4.77737851644441        0.12257526369870       -1.25326417042228
H            4.76225409337839        1.34379569914104       -0.01306984136014
H            4.56097415570278        3.13811029902639       -1.78683835621928
H            4.57404342944019        1.89534134610355       -3.02445101699303
H            6.70520845272909        2.34462299686563       -1.17107606733564
