13
 energy: -1.802863594950 gnorm: 0.000637806695 xtb: 6.5.0 (97a52f5)
O            1.04055220529416        0.05758655140594       -0.05168963634588
C            2.45447980278598        0.04621304702411       -0.06386092262849
C            3.00395323428849       -1.31438087297149       -0.46588774999083
C            4.52460039934784       -1.36480153662310       -0.47593297537432
O            5.03466679970465       -2.61595088421123       -0.88172912241143
H            0.69256679641223        0.94381414727820        0.19736994840602
H            2.81775405411071        0.32171903624911        0.93442140706079
H            2.80928310979819        0.81852104985164       -0.75819226499189
H            2.62033380461131       -1.58443861394459       -1.45511522732505
H            2.60947253380585       -2.07803163645382        0.21209531560704
H            4.93485455956664       -1.11965484017300        0.51190329448618
H            4.92964074875814       -0.61786848741827       -1.16923308310070
H            4.68435195151581       -3.33175696001349       -0.30560898339143
