22
 energy: -3.848661307461 gnorm: 0.000411973627 xtb: 6.5.0 (97a52f5)
O            1.05209490275104        0.17306708956213       -0.15545031153789
C            2.46010552076403        0.02371765208409       -0.12523859742785
C            2.89493916889340       -1.09352094443254        0.81367622290271
C            4.40968574112752       -1.28755447244964        0.85462244525596
C            4.83149416182033       -2.39416553413136        1.77534309904746
C            4.78839251564309       -3.71445094393180        1.35365687859357
C            5.15197814041192       -4.73803991075903        2.20468311018242
C            5.55901477177599       -4.45372630177546        3.49143362671990
C            5.59708614791013       -3.14542416886325        3.92676278448755
C            5.23215038512026       -2.12271990460737        3.07515779206989
H            0.78684076405199        0.89537408996388       -0.77093937230559
H            2.91050571348284        0.97502794180481        0.18579762004638
H            2.81655902398217       -0.17940244729632       -1.14308398205877
H            2.40634758800914       -2.02704721049875        0.51301782120380
H            2.51663695119765       -0.88735425492969        1.82112480034080
H            4.89577014570384       -0.35353039764055        1.15877281247258
H            4.78597986552933       -1.49326712713753       -0.15401955887500
H            4.46499646041355       -3.93450298820148        0.35051357284008
H            5.11708196357355       -5.75986196488124        1.86350706085610
H            5.84501824399465       -5.25272411046244        4.15584609879120
H            5.91144209554844       -2.92137672036634        4.93306772409343
H            5.25532972829484       -1.10154737105074        3.41572835230129
