25
 energy: -3.557303541073 gnorm: 0.000864261672 xtb: 6.5.0 (97a52f5)
O            0.63259009561568       -0.46891614801787        0.27054609830765
C            2.01210614689178       -0.15497837052893        0.24236575746728
C            2.69960892730572       -0.52759989326023        1.54632861305705
N            4.15399056405640       -0.24244388641781        1.54092799955314
C            4.53512539271281        1.20560286813058        1.37447407085576
C            5.18429401977672        1.47252319785374        0.02651381191144
O            5.59602005079420        2.81304202301779       -0.13325275998145
C            4.84451552835432       -0.92248518770474        2.66473075364458
C            6.34587210205291       -1.04299412403850        2.45007881903897
O            6.99091949299483       -1.78432463772284        3.46328022321338
H            0.19627693810043       -0.23722388658364       -0.58089356551586
H            2.12352157655513        0.91759123614765        0.04220013730468
H            2.48291257217135       -0.68887621337195       -0.59298348140448
H            2.54729770974522       -1.59364796047055        1.73306247400502
H            2.23547135374988        0.00033503086723        2.38309427297042
H            5.21612331586625        1.50026637704604        2.17752501270208
H            3.64684915012124        1.83051449535271        1.50121530595487
H            4.50948939135480        1.20634045722311       -0.79670911526841
H            6.07556834111495        0.84570532314548       -0.09655287842430
H            4.83519476004858        3.42365120258766       -0.00586826112475
H            4.42496317876988       -1.92501488246923        2.78105569327129
H            4.62640839075417       -0.38796194758232        3.59265138158898
H            6.82326621134606       -0.05818060593411        2.37677625206054
H            6.55069672895551       -1.55375822766705        1.50154697571928
H            6.80991806079159       -1.38944623960129        4.34595640909245
