20
 energy: -3.548558351206 gnorm: 0.000813340764 xtb: 6.5.0 (97a52f5)
O            1.10603035206226       -0.23832908737529        0.09840781406357
C            2.44434356316217        0.19191329917211       -0.06106804471723
C            3.13622169856030        0.39647419574308        1.28155525894167
O            4.47665580766473        0.84267854304060        1.12070826592997
C            5.15094198710243        1.12697557330196        2.31388349804286
C            6.43931106107112        1.65648185099931        2.21053341441048
C            7.16923521714791        1.97277766004906        3.33195737091769
C            6.63300689207688        1.76478971792847        4.58624809983786
C            5.36334400454616        1.23803804311427        4.71179458377078
C            4.62770438965213        0.92165302968178        3.59286958261311
H            0.66678695213534       -0.36388762265437       -0.77354597650377
H            2.45575790795242        1.12984827423996       -0.62942719030931
H            2.99371747462904       -0.55084898108167       -0.65212512963183
H            3.14661170379443       -0.54180554160607        1.84506421224177
H            2.59131804956138        1.14102904136292        1.87119739168350
H            6.84679388555733        1.81479451800600        1.22791367161210
H            8.16036717184827        2.38344887463974        3.23038176322803
H            7.20483487425109        2.01146047210110        5.46566626338715
H            4.94573383443897        1.07509065373963        5.69190018214325
H            3.64029317278587        0.51321748559732        3.70724496833833
