10
 energy: -1.283744598244 gnorm: 0.000546153202 xtb: 6.5.0 (97a52f5)
O            0.93479379494504        0.01743743532677        0.00756005466303
C            2.35049433145607       -0.00385833056536        0.02264086131913
C            2.90548280526807       -1.21041312106262       -0.71536909543663
S            4.67677801194356       -1.30592904850331       -0.69028966443998
H            0.58448145565777        0.79024355536245        0.50604215810646
H            2.69502177647699       -0.01152778049601        1.06518678862080
H            2.72237900637018        0.92398007737952       -0.43091455206429
H            2.55361082525330       -1.21295948202985       -1.75052492574292
H            2.51305862913915       -2.12565167967675       -0.26524158826744
H            4.76710936348986       -0.10141162573483       -1.28510003675815
