17
 energy: -2.325002076904 gnorm: 0.000540854764 xtb: 6.5.0 (97a52f5)
O            0.95582295219239       -0.12310206500083       -0.11127478482283
C            2.36378045656580       -0.06656292487176        0.03513909597337
C            3.08280262064690       -0.59911287502868       -1.18943111084024
S            4.85361698040153       -0.53305146855654       -1.03070711913324
C            5.26380537082116       -1.25434407794701       -2.60498976872222
C            6.76117209952491       -1.32784449748302       -2.83790656667745
O            7.10515861645813       -1.87734771149316       -4.09374827817460
H            0.50044815849583        0.22858208605036        0.68748160148290
H            2.65258228315724       -0.64647868008788        0.92187683309388
H            2.66050945396773        0.97416668215332        0.22158304273101
H            2.78582567673923       -0.02641178560425       -2.07010664062497
H            2.78226392241886       -1.63222988165390       -1.37378366779163
H            4.79433808755926       -0.66500257625173       -3.39492037274534
H            4.82459566062162       -2.25240168732657       -2.65528438825625
H            7.25278395342151       -1.91240594920884       -2.04892098227395
H            7.20222022577699       -0.32408908660161       -2.79618433377034
H            6.71215348123113       -2.77353350108793       -4.19219255944804
