19
 energy: -3.402605090055 gnorm: 0.000313179692 xtb: 6.5.0 (97a52f5)
O            0.92997716036183       -0.00720703220683       -0.14252373062716
C            2.34180349128967       -0.09086791190565       -0.07159272545873
C            2.98556836984160        1.28948031520704        0.01719691260635
C            4.48812846220831        1.30892436271948        0.09883828222883
C            5.25490786295035        0.15245522728798        0.14446921778227
C            6.63097713436491        0.21847329362518        0.22708556517351
C            7.26416625210793        1.44244391565956        0.26570418421763
C            6.51760674844885        2.60040798208139        0.22098080377931
C            5.14205775759217        2.53201116289671        0.13873688914508
H            0.52317550993716       -0.90347771327242       -0.18638577769250
H            2.70610660498656       -0.62349441358714       -0.95919495634369
H            2.61204483705939       -0.69323149759319        0.80498360235988
H            2.57490589579953        1.81204091909834        0.88757684342234
H            2.66768707250368        1.87982524323527       -0.84873458815931
H            4.77269568237582       -0.80865365543645        0.11511029365908
H            7.21183615033547       -0.68876297316815        0.26186229303011
H            8.33876579969329        1.49383891256861        0.33095624118921
H            7.00826818519118        3.55952130684845        0.25145194756269
H            4.55894102295232        3.43659255594181        0.10531870212507
