13
 energy: -2.323083869476 gnorm: 0.000831971379 xtb: 6.5.0 (97a52f5)
O            1.46015055838969        0.83080899253126        0.29838898243656
C            2.42567970609010       -0.13481768184526       -0.07345813612098
C            2.98419678579624        0.10998292426742       -1.43826609018163
C            2.79165133216721        1.24955452893730       -2.18673116264574
C            3.48179216245909        1.07089516780052       -3.38116894577831
C            4.06953377292282       -0.16790199492224       -3.31386814116195
O            3.77607272025477       -0.76889770848643       -2.12896972449867
H            1.11012804850134        0.65080575587327        1.19994615773655
H            1.96379522575638       -1.12878878157681       -0.04674135714933
H            3.24196958125222       -0.12387898060580        0.65839788892063
H            2.20831611042385        2.10414332329000       -1.88740570817764
H            3.53825783821472        1.76762352475346       -4.20151226167360
H            4.67922615777147       -0.61951907001656       -4.08744150170571
