13
 energy: -1.786134807008 gnorm: 0.000869051287 xtb: 6.5.0 (97a52f5)
O           -0.38705794883096        1.81244773259227        1.09590198232054
C           -1.31542453739744        1.97170815484619        0.19169346642960
C           -2.38684913661325        1.03700414444852        0.23928564936863
Cl          -3.43651518476405        0.80292053345841       -0.94644336861738
C            1.11170571566356       -3.51910267236315       -0.13303812689928
C            2.02507205724803       -2.65620325645758        0.30270111126635
C            1.73776359326120       -1.36044992736537        0.11027722245867
C            0.78438343104440        0.04088997766713        0.56649456977065
Cl           3.00090205196287       -1.86345264204097       -1.65625541085559
H           -1.66708520086798        2.99335431965671        0.22413559058089
H           -4.40999280771535       -0.03355109056847       -0.80857263953414
H            1.19125783047092       -4.56343615989433       -0.03503987986242
H            2.93377013694907       -2.94230911411841        0.83302983350229
