13
 energy: -1.829638191692 gnorm: 0.000619693093 xtb: 6.5.0 (97a52f5)
O           -3.66355840498464        0.10329901255104        0.48628460728677
C           -3.38296776894591        1.15295752371445       -0.25332264650977
C           -2.22143950348062        1.90487078876901        0.20057823232937
C           -0.95455910295371        1.47827351893530        0.29918662193416
C           -0.71406792154430        0.20066762445040       -0.08929915848415
Br           0.97538990325468       -0.20612448339364        0.10378193439355
C            1.27377749957486       -1.84019348673744       -0.41739382288320
C           -0.18769670543268       -2.30289744614844        1.01841268698811
H           -3.22662944324694        0.80120758447872       -1.28143351656703
H           -4.26937237161442        1.80027351332386       -0.25795963758274
H           -0.16869557230440        2.12536333242334        0.66894370582457
H            2.11758731757896       -3.02303866752837       -1.21792986530334
H           -5.07233792590056       -1.29596881526705        0.88703085858117
