13
 energy: -1.637512878719 gnorm: 0.000724987973 xtb: 6.5.0 (97a52f5)
O           -2.29402877792000        0.29627035530880        0.70261713002954
C           -1.60070065870899        1.20949405669651        0.04117801864512
C           -0.15553618293029        1.05314198481543        0.16027830774257
C            0.76613794254815        1.98945439098053       -0.02633564144723
C            2.07141050796631        1.54678339077649        0.12047853633909
F            3.08284342670930        2.30030271597015        0.01027300061151
C           -0.53240498883731       -3.70359771109567       -0.13669746827522
C           -1.49566292381808       -1.62063062571624        0.29301913143687
H           -1.90247969664121        1.16061736597062       -1.01373603595440
H           -1.91185109668134        2.18988809579166        0.42518309131406
H            0.52084454318439        3.00757527231608       -0.26652726829908
H            1.19521892819656       -3.78200939706992       -0.16945626936503
H           -1.85253102301381       -4.81469989463786       -0.00373453276141
