58
 energy: -11.434687223344 gnorm: 0.000618647708 xtb: 6.5.0 (97a52f5)
O            3.49969331863382       -0.64432125900548       -0.37040347549638
C            2.20266524810962       -0.22778303612862       -0.20635429535913
C            1.89024941466809        1.14408281705895       -0.34851893399907
C            0.61789887756270        1.59489470321578       -0.22376915808658
C           -0.44384441864803        0.70190966559137        0.04718755074238
C           -1.77316721939731        1.15988020696282        0.14632696841590
C           -2.79520811960386        0.28934116325980        0.38164772288584
C           -2.53453157968894       -1.07452105345771        0.52486617799528
C           -1.25852531877735       -1.54848443861020        0.43937867365999
C           -0.16805826380433       -0.67962071652077        0.20743928527172
C            1.18263072246905       -1.14531842669368        0.09556782986161
C            1.50389560488016       -2.54126634773630        0.26065636373801
N            2.57414167819336       -3.08226065547404       -0.16380224625179
C            2.85527438919048       -4.45312048322586       -0.07437364865808
C            3.02136727538365       -4.89503638233835        1.39758357391093
C            3.37093888237490       -6.38689164844489        1.51135255147030
C            2.30401431613672       -7.24740640402331        0.81366434620674
C            2.15367121717392       -6.83966616028745       -0.66075080617059
C            1.80209988156986       -5.34161933080519       -0.82053721328127
N            1.65126253328202       -5.02320535558533       -2.18426367670180
C            1.66590231451527       -3.84795255631769       -2.67264110394169
C            1.42505102073540       -3.46313409069406       -4.04182697860641
C            1.14754117956246       -4.42370084212839       -5.03358327144432
O            1.12507640066611       -5.76674846383388       -4.75421283329763
C            0.87835860356091       -4.01282944450483       -6.35706578987774
C            0.87434539879670       -2.70237101451551       -6.70279091207593
C            1.15194154057649       -1.70113060602777       -5.74388382618284
C            1.14740284041684       -0.33659714386056       -6.09849555681419
C            1.42020623934215        0.62698650915298       -5.17406217748961
C            1.71590619093770        0.26849706798658       -3.85885603716950
C            1.73146588975341       -1.04203595026329       -3.48507085289199
C            1.44092159021438       -2.07542174766599       -4.40616205208328
H            4.08319246638988        0.12545564569364       -0.55576496373950
H            2.68785140461523        1.83351292711362       -0.56151502356936
H            0.39976167133317        2.64264780297530       -0.33868011393533
H           -1.97220790804552        2.21103979910088        0.02721798483817
H           -3.80803928437489        0.65084018173997        0.45138205055098
H           -3.35120297893312       -1.75601229658426        0.69898603101181
H           -1.08682298948205       -2.60526788853627        0.53071622677115
H            0.77880721138863       -3.18116582481567        0.72752693875787
H            3.81413251373778       -4.60058014032703       -0.59446985672342
H            2.08717860218256       -4.69376902878826        1.93159593631427
H            3.77653445928722       -4.26705168197867        1.88627929960899
H            3.48736276179044       -6.68254145591642        2.56316601171077
H            4.34713381970480       -6.56785213318379        1.04521272419153
H            1.34224947634165       -7.11865983293933        1.32501863537265
H            2.54331050173612       -8.31613662830868        0.90162810631573
H            1.39947043188468       -7.45224649156278       -1.16993259956818
H            3.08987527514859       -7.02845679049655       -1.19661155003226
H            0.82586192421967       -5.16080502604264       -0.34793607476992
H            1.85903674559212       -3.05494101963177       -1.98402856810417
H            1.31383436983391       -5.83194910924692       -3.79511646195377
H            0.66902652619972       -4.77533766976537       -7.08597908948471
H            0.66052037565241       -2.40861044733425       -7.71595084323345
H            0.92321323695963       -0.06394238967268       -7.11541911269869
H            1.41196433503526        1.66685909962604       -5.45679018932852
H            1.93131845386697        1.03538239307019       -3.13345928054984
H            1.98581894914354       -1.28013056924364       -2.46984241601211
