48
 energy: -9.827632527300 gnorm: 0.000600445486 xtb: 6.5.0 (97a52f5)
O            3.48313585398488       -0.50327118523454       -0.07312160013558
C            2.16053801466537       -0.14112967621570       -0.01891546031800
C            1.82314387269861        1.21750610416443        0.18280877086992
C            0.53176673703383        1.62697974287712        0.22588510685167
C           -0.52668233558533        0.70329659589597        0.07283178439185
C           -1.87108041104398        1.12378608723734        0.12201926094780
C           -2.88800098769422        0.22728517788346       -0.01581628058753
C           -2.60643768194313       -1.12618333540052       -0.20545684783161
C           -1.31605749282124       -1.56449564512521       -0.25841476671708
C           -0.22997007722368       -0.66883757696165       -0.12727456336561
C            1.13908632626005       -1.09402772571824       -0.17394991757182
C            1.47947506999954       -2.47905159418807       -0.37837927839381
N            2.64149239611546       -2.97317772805402       -0.22097099574904
C            2.91917561007221       -4.32095634857987       -0.42885038245117
C            4.32729669670200       -4.69817264178806        0.02567979089575
N            4.60936169987418       -6.04919956682626       -0.15830093671781
C            5.64788629151342       -6.60827970614590        0.32292936810618
C            6.00818789138013       -8.00324183966938        0.18435350253886
C            5.22976954927157       -8.87957054462797       -0.59885665349113
O            4.09673062602043       -8.46678095152152       -1.25300596608688
C            5.60735201695380      -10.23311522994626       -0.73388533116280
C            6.71117869820218      -10.72371422228479       -0.12119996347145
C            7.52129551648292       -9.88870344475034        0.68087707113492
C            8.66684848432407      -10.39822153956105        1.32486786375473
C            9.44397833883789       -9.59644937693986        2.10538673333804
C            9.10965845067629       -8.25290829810237        2.27675598715492
C            8.00876674935584       -7.72909444825629        1.66555415999722
C            7.17446416472055       -8.52183589182501        0.84276225682201
H            4.05692316240895        0.28585664672787        0.04833340298932
H            2.61792444742971        1.93259162971214        0.29984647304749
H            0.29683219640085        2.66601205211620        0.37972852027031
H           -2.08519254301503        2.16775538568983        0.27294287229825
H           -3.91205814669272        0.56030001732427        0.02495360181389
H           -3.41766093421900       -1.82830884015484       -0.30781342209330
H           -1.12947919065147       -2.61381882892203       -0.39245087260345
H            0.70512123632865       -3.15899130440107       -0.68243394804326
H            2.79482663591718       -4.55080582802611       -1.49336244721976
H            2.18232209459906       -4.92763614270905        0.11023295674312
H            4.44914896859975       -4.44777883952947        1.08597369033525
H            5.06776986658371       -4.10286364769294       -0.52104694419766
H            6.30812114370725       -5.96909981240883        0.87805848536800
H            3.99960695839894       -7.51742353085706       -1.03623406818078
H            4.98782641821440      -10.86719499261653       -1.34279557432806
H            6.98237027937131      -11.75886051215930       -0.23687189448764
H            8.92044961385549      -11.43591541951992        1.19236834451237
H           10.31672337705329       -9.99765785968921        2.59377131384778
H            9.72829266389416       -7.62720286459359        2.89917800636737
H            7.77641168298626       -6.69286249863013        1.82532879080535
