52
 energy: -11.080472078098 gnorm: 0.000896616283 xtb: 6.5.0 (97a52f5)
O            3.44566552032180       -0.44936177244568        0.28887450225355
C            2.12663537033170       -0.09179174969418        0.20924766614406
C            1.77853970375806        1.27126821537186        0.06587963236726
C            0.48457644721358        1.66551646765851       -0.02437360615287
C           -0.56815696610449        0.72198355557498        0.02463978875549
C           -1.91109791460900        1.12482170319155       -0.10940468883526
C           -2.92023971646957        0.20816550985092       -0.09045544898741
C           -2.63027654326368       -1.14716717335559        0.06288790631950
C           -1.33961059073491       -1.56772636412095        0.19731695116044
C           -0.26432652880783       -0.65259648216150        0.18652881540250
C            1.10950470506249       -1.06464972942512        0.27454055882285
C            1.45544324383668       -2.45061558930017        0.34762566067543
N            2.60152211760500       -2.94209964727288        0.04029423807269
C            2.83068782758050       -4.31047832992749       -0.06121676453049
C            3.96898841281682       -4.85775844712778        0.52235641801174
C            4.21066552210977       -6.20986029436686        0.47327995874073
C            3.31702352309265       -7.04976165163796       -0.16451090033752
C            2.19183621700081       -6.53326795865914       -0.76190950504604
C            1.93119134680761       -5.16655208841931       -0.74064652075721
N            0.80419979264613       -4.67433332074360       -1.39025153553441
C            0.80795312991553       -3.59573700963272       -2.08845991965440
C           -0.34329599975632       -2.92871959886828       -2.62531237229700
C           -1.60578503824308       -3.56275758305485       -2.65113178208046
O           -1.78940256565655       -4.83185170295444       -2.17234723526588
C           -2.72604317145519       -2.88023850704879       -3.17262813979886
C           -2.63095549075787       -1.60635730399714       -3.62425027491262
C           -1.39725732545091       -0.91520024837485       -3.58600202950174
C           -1.30666598557612        0.42481863350812       -4.00984877069772
C           -0.12394164220979        1.09963719175524       -3.94569549932594
C            1.01610831879213        0.46490955145437       -3.45476031796605
C            0.96093338546948       -0.83317972967066       -3.03937291451111
C           -0.24150985989568       -1.57276426108348       -3.09331668071158
H            4.01777826483214        0.34846171162911        0.23638965282120
H            2.56721365237612        2.00108777883116        0.02238222538371
H            0.24258746241711        2.70741735450874       -0.14385921721850
H           -2.13110619428935        2.17080551251218       -0.23608540227497
H           -3.94341772051629        0.52783213068066       -0.20008598415468
H           -3.43235295698513       -1.86702081579418        0.06218056584902
H           -1.14486370353378       -2.62102007804613        0.27814588350677
H            0.68055462823693       -3.16469985079543        0.55839605890000
H            4.65186452621660       -4.19554013263039        1.02459754194998
H            5.09505218830346       -6.61625173573366        0.93569574146718
H            3.50541868482302       -8.11011390763918       -0.19765852497366
H            1.49840409969259       -7.17866693887395       -1.27123531692418
H            1.76474460253824       -3.11870767393061       -2.19000562981938
H           -0.92208174510357       -5.10738880625324       -1.81021725316040
H           -3.66676283283334       -3.40098108335552       -3.18909264598602
H           -3.50026090333466       -1.09985496658247       -4.00642541564538
H           -2.19075248878171        0.91483080348831       -4.37973597801667
H           -0.06874039934508        2.12653412553405       -4.26740342948426
H            1.94380348920757        1.00990485423508       -3.39257417953307
H            1.84696810070302       -1.27904256677609       -2.62747588251396
