115
 energy: -23.010335983019 gnorm: 0.000915294665 xtb: 6.5.0 (97a52f5)
C           -1.08736618892791       -4.16111402860568        5.42542771368834
C            0.30654022165133       -3.78653554362177        5.96494187117524
C            0.24733283798463       -3.78915471280599        7.50385950115855
C            1.31495144329258       -4.84596277640445        5.48330312386529
C            0.75403673259126       -2.40043437257102        5.47498840629676
C            1.98398685148121       -1.89375401538235        5.87496313201419
C            2.41936111400734       -0.65735468459242        5.45622107134232
C            1.63940943079227        0.12893960371407        4.61407951168528
C            2.05379776676033        1.44885001291649        4.14523214100632
N            1.27176129213498        2.20781474702851        3.38964927596799
C            1.96090526778324        3.34432112425618        3.14187175905216
C            1.56410632435347        4.47779775483885        2.35284567623717
C            0.31698854481969        4.51995854207308        1.72202324081878
C           -0.03494513957694        5.58545713707215        0.94302757553378
C            0.85544301016979        6.65438775470710        0.74282007529055
C            0.50511236747631        7.81007375924933       -0.10344477790657
C            0.78490134680707        9.08681753934211        0.32025311446239
C            1.28988614061672        9.86757019984805        1.32168114996216
C            1.31203928505026       11.23858568217646        1.30075419633015
C            0.87275337069443       12.25427053793060        0.38394084464857
C            0.24164068671239       12.35843144370068       -0.83927233053796
C           -0.24160820458887       11.41239527882472       -1.72622449489718
C           -0.18708556604976       10.09244480333189       -1.57254372388443
C           -0.47499858358935        8.87402272283058       -2.12138480055687
C           -1.09057891880524        8.74214779409681       -3.39262446177598
C           -1.32082083680292        7.51405754434070       -3.92425258247569
C           -0.94303300478327        6.35417473692594       -3.22638019892957
C           -0.35654995306252        6.43819260563521       -2.00210160191055
C           -0.11395494893808        7.69205996102281       -1.38508096303491
C            2.08296300623161        6.62081487302380        1.39287988849419
C            2.46613838077898        5.55686195127387        2.20874329187918
C            3.76333354897185        5.52677753728355        2.89210030488673
C            4.64435004967662        6.60655734321175        2.84039683502426
C            5.88533839113417        6.58472655860581        3.46469443051928
C            6.77631173732261        7.75806330450437        3.42381985951032
C            7.41159991828963        8.18639421124718        4.56470237213048
C            7.57292483864430        8.00458382769597        5.90944473777854
C            8.29523782306218        8.83799219321185        6.72472277825115
C            9.03528656066689       10.05644231634971        6.54403079340485
C            9.33690589207761       10.95918588370174        5.54424484818809
C            9.00546991272222       11.01339375103708        4.20186114249579
C            8.27802133159829       10.12017299408141        3.53733623156370
C            7.73923157737772        9.76963257427150        2.33096065542929
C            7.91262685905277       10.55927202243299        1.16545163929795
C            7.38387639688907       10.16476909054076       -0.02143509015351
C            6.66517147856032        8.96103532758438       -0.11494439740059
C            6.47284274202173        8.17809612090890        0.98045957002736
C            6.97879050767179        8.55116572839339        2.25227378057239
C            6.24503933634029        5.43596291428724        4.18803151385836
C            5.39649190502057        4.37062372805418        4.27452637266349
C            4.14626126060057        4.38867493079958        3.64358292623737
C            3.21823979700670        3.29898719768958        3.75221062855987
N            3.28542924551582        2.07752575795026        4.39959842728125
C            4.42258240335192        1.57196005815321        5.13004951011446
C            4.57260473146538        1.84420906941066        6.48089372682439
C            5.66553176621391        1.36767703769981        7.16909895440512
C            6.64244929666480        0.60942768174470        6.53542833299411
C            7.84380879567682        0.09162112557096        7.34089183598184
C            8.59393610954683        1.28339713866058        7.96472865343169
C            7.34016345276013       -0.84471869907074        8.45454992660374
C            8.83171927947368       -0.69196279570088        6.45487540889972
C            6.48151254284150        0.34214502016282        5.18058288241466
C            5.39084354161393        0.81690044336940        4.48713270834648
C            0.40718274394064       -0.37690791740090        4.21363468332658
C           -0.02578245682840       -1.61477173910793        4.63420620728890
H           -1.39082802657090       -5.14346958892866        5.78725127080347
H           -1.09036160215601       -4.19695047385465        4.33630965329342
H           -1.84005598184997       -3.44355296583209        5.75127557567135
H           -0.08875508170713       -4.75538399178532        7.87967942136787
H           -0.44432760931703       -3.02788190627804        7.86397589375037
H            1.22491223796934       -3.58553999982829        7.93876203443836
H            1.01294281040629       -5.84408454682684        5.79988867387977
H            2.31000385307151       -4.65643014009988        5.88376947219403
H            1.38578861307558       -4.84357129016400        4.39584473857150
H            2.60932873688096       -2.48022204897200        6.52558701599821
H            3.37278995067610       -0.29316177269949        5.78658849637317
H           -0.35998973936548        3.69567071917712        1.86475085731671
H           -1.01087544371951        5.62587002741228        0.49083629955732
H            1.68498669660705        9.35570156410911        2.18372208942879
H            1.76581125935404       11.65944765884028        2.18964160518539
H            1.10563890306824       13.23666783602447        0.78224811101501
H            0.08609296080507       13.36874533835285       -1.19112179661617
H            2.11914700477124        1.32292454220874        1.31154802195131
H           -1.36637319574728        9.63346537245704       -3.92940995488229
H           -1.78693978228653        7.42452673557976       -4.89185908833710
H           -1.11552444476315        5.38857727929914       -3.67320452724609
H           -0.04145888382558        5.54051507107502       -1.50144651135949
H            2.75977276943351        7.43641036500848        1.22516510159302
H            4.34743377040281        7.51106965281377        2.34509991258750
H            7.07778237036283        7.15354763534515        6.34721204464543
H            8.30772967374869        8.50165071756119        7.75417894579080
H            9.48167340886246       10.36062256853221        7.48532078782108
H            9.94891446016837       11.79599100828075        5.85051443371934
H            8.15997766038627        2.64685790909273        4.64832667059938
H            8.47305150282708       11.47531211351591        1.23924510350158
H            7.52143251985054       10.77176898253056       -0.90134352473538
H            6.26831346114563        8.65529231305224       -1.06928959797140
H            5.95366308285863        7.24191568908373        0.87917940224394
H            7.20545136378705        5.40519010408827        4.67273395235915
H            5.68160907176256        3.50426159936186        4.84081231608362
H            3.82145762922201        2.43350973902786        6.97751216663117
H            5.76417282939694        1.58527768048550        8.21838848817074
H            7.95625082199394        1.83902489498060        8.65103251189561
H            8.93434557221824        1.97249978848612        7.19219523269953
H            9.46651503622834        0.94442009244622        8.52273822389314
H            6.67683928347735       -0.32155861379210        9.14229107864809
H            8.17191878754225       -1.24546908451842        9.03352291930322
H            6.78850002016799       -1.68361249578190        8.03070669571813
H            9.22116438763677       -0.06542793774810        5.65283626028495
H            8.35417395160754       -1.56570218970814        6.01219728626939
H            9.68104362303886       -1.04331614749815        7.04050708238475
H            7.21643470566064       -0.24313895196942        4.65731038217716
H            5.27252026646709        0.61029966833774        3.43760999642275
H           -0.20631263555858        0.22402066553210        3.56489680906453
H           -0.98448996737312       -1.97137026599743        4.30237207861777
