13
 energy: -2.523691770064 gnorm: 0.000632982931 xtb: 6.5.0 (97a52f5)
O            2.28594686037551       -0.08497527623730        0.01368041368786
C            0.90357577518852       -0.02478541713808        0.00884740731167
C            0.21661940700676        1.19112258401829        0.00509095983585
C           -1.15904476963322        1.21852142654567       -0.00213604749644
C           -1.87875442709392        0.03950592069289       -0.00566027316081
C           -1.21544753717118       -1.17191975630124       -0.00181124578929
C            0.15960213151325       -1.20583585949203        0.00557574764259
H            2.65902557540826        0.82338826001703        0.00246170514781
H            0.77833123190487        2.10839060786513        0.00806520314160
H           -1.67740867090150        2.16355093869862       -0.00504432215363
H           -2.95617417978110        0.06479563171653       -0.01124718723447
H           -1.77617050755573       -2.09238180580155       -0.00447259827431
H            0.68950911073949       -2.14178725458396        0.00864023734157
