36
 energy: -7.044930092806 gnorm: 0.000930747092 xtb: 6.5.0 (97a52f5)
O            2.33182104717001        0.08357983693056        0.15746817381800
C            0.95969706181129        0.01047359070003        0.08534838462724
C            0.18559067104664        1.16852697018020        0.20321830787099
C           -1.18520059362112        1.11722753496641        0.12889451214536
C           -1.82491423431669       -0.09166624612693       -0.06644040365750
C           -1.08839152643669       -1.24747984700812       -0.18606159689845
C            0.30230666580697       -1.22806832766858       -0.11270276946945
C            1.03956021733208       -2.46297405799038       -0.23688252666616
N            2.29772987100010       -2.57357748414123       -0.10267905854910
C            2.96115108431015       -3.79048827387932       -0.22512421424927
C            4.43541167668147       -3.69158355127131        0.15776173795806
N            5.09908120933594       -4.90793715543697        0.03147207771504
C            6.31366173507712       -5.06344543824446        0.36838295471623
C            7.04251786570560       -6.30597790698751        0.26945981495244
C            8.32780536706905       -6.39409859220778        0.79838956428032
C            9.05011557431254       -7.56292824889616        0.72772345402827
C            8.50207820511823       -8.67702318110836        0.12152422855501
C            7.23776696103275       -8.61980455335039       -0.41272383260088
C            6.48133390255600       -7.44562898603177       -0.35647108606968
O            5.22068672086400       -7.40546207522250       -0.90692659201955
H            2.61435976275736        1.01557066932221        0.29144478074937
H            0.68098644067528        2.11112424945237        0.35336908844413
H           -1.76349716751455        2.02165727614862        0.22293035790601
H           -2.90027267122644       -0.12911325899811       -0.12401595442316
H           -1.58846889949049       -2.18893623986327       -0.33595203524160
H            0.47967562458877       -3.35891576301942       -0.44473431024554
H            2.86814382119431       -4.14555602538506       -1.25809187180291
H            2.46512801838385       -4.53654474387822        0.40651875544582
H            4.52628462482786       -3.33803902814680        1.19131492410644
H            4.93347803028542       -2.94569269366115       -0.47241159490606
H            6.83087449746964       -4.21246540397222        0.77720586992724
H            8.75601825523304       -5.52796099155495        1.27303936147945
H           10.04213864069571       -7.61046521645817        1.14563788317225
H            9.06826267058901       -9.59233602229689        0.06746440111825
H            6.81434263898616       -9.48719099306438       -0.88687460711162
H            4.99187623068793       -8.27891982182704       -1.29527617910382
