13
 energy: -2.433568835625 gnorm: 0.000720443620 xtb: 6.5.0 (97a52f5)
O            0.57973489695980       -2.02619279918256        0.00267076310187
C           -0.26612230459879       -0.93034263939724        0.00157172304297
C           -1.64985832193917       -1.05870529163669        0.01452920043750
C           -2.46143958680883        0.06070201814296        0.01113643310892
C           -1.90826206103751        1.32281987789356       -0.00510436512344
C           -0.53273481956408        1.47261714015151       -0.01791342633213
C            0.28170295091365        0.36349525024695       -0.01421705767373
Cl           1.99675356939477        0.54432903733805       -0.02575433664736
H            0.05624965843997       -2.85669714597409        0.00145615669230
H           -2.08412863304516       -2.04246089437792        0.02747420939383
H           -3.53279691872991       -0.05516008804868        0.02119401774628
H           -2.54464218031745        2.19233700972529       -0.00767506050255
H           -0.08411624966730        2.45155852511884       -0.03009825724445
