3
 energy: -0.435429504569 gnorm: 0.000229670597 xtb: 6.5.0 (97a52f5)
S            0.97050478572156       -0.06204000000000        0.01611000000000
C            2.54319327997783       -0.06204000000000        0.01611000000000
S            4.11588193430062       -0.06204000000000        0.01611000000000
