5
 energy: -0.408696700298 gnorm: 0.000087803009 xtb: 6.5.0 (97a52f5)
H            1.06519389738684       -0.03546035784510       -0.06759792639145
C            2.15420135049743       -0.03546004021373       -0.06760163825295
Cl           2.72119115302820        1.30240774670154        0.91319959488308
Cl           2.72119091975928       -1.55379404650173        0.60062237278332
Cl           2.72118267932826        0.14500669785902       -1.71663240302200
