9
 energy: -0.549276651994 gnorm: 0.000893155043 xtb: 6.5.0 (97a52f5)
H            1.53322842338439        0.25409371426926       -0.14066537591464
O            2.18340960755530        0.29043912893444       -0.86502573660448
C            3.11011640954013       -0.72394485702643       -0.63812308003757
C            4.08208202318194       -0.29397206959036        0.18528589519998
H            3.54509504552157       -1.05559768230312       -1.56187420916091
H            2.21526936458138        1.71299382377496       -2.44837039724802
H            2.20448505423880        1.33159565879744       -2.03372352713814
H            2.30623904026563        2.20285190278631       -3.00883189014828
H            5.25233503171187       -0.80113961964853        0.80680832106540
