3
 energy: -0.327656035867 gnorm: 0.000249246028 xtb: 6.5.0 (97a52f5)
H            1.11328750027636       -0.08041541367616        0.00187782330583
O            2.08379156601177       -0.05444714226224       -0.00882122741295
H            2.38081093371187       -0.90903744406160        0.34348340410712
