39
 energy: -7.785655424728 gnorm: 0.000797175605 xtb: 6.5.0 (97a52f5)
B            0.73282435279683       -0.00281080501718        0.17833091495401
P            2.66768204525947       -0.02582628736142        0.21422171840125
C            3.33619941689303        0.02102572458499        1.87840919298735
C            3.03008705056695        1.08302564147268        2.69806623665387
C            3.54731234708765        1.12983703307388        3.98074716083769
C            4.36704882596832        0.11296803509656        4.43016537430989
C            4.67164311712182       -0.94980542248932        3.60226751752361
C            4.15336884358935       -0.99421771488051        2.32066858927296
C            3.39340881618742        1.25341455156951       -0.82411875211578
C            3.35355678544527        2.62386612123416       -0.76658173757339
C            4.03279993272008        3.35386990385472       -1.72662278426536
C            4.74129911203365        2.70966503598658       -2.72808331903045
C            4.78263084016652        1.33142286041361       -2.78733409525847
C            4.10160561477460        0.58275925929870       -1.82507769797211
C            4.04250976346581       -0.90377838560316       -1.74989221470863
S            4.74509223921901       -2.17905763979761       -2.74151429113496
C            4.03056204307916       -3.43084425153923       -1.73680117032990
C            4.12400157988013       -4.81194720043634       -1.85904568371844
C            3.47943803445045       -5.61320983653616       -0.94798196608276
C            2.73540813277742       -5.05528167470402        0.09364659320202
C            2.63201713970921       -3.69527661391744        0.22922945330316
C            3.28504963769334       -2.86460899316778       -0.69460412204312
C            3.30963165782784       -1.42890131766412       -0.72520536110885
H            0.35011757959291        0.94540987057978        0.75306553951572
H            0.33509764254426       -0.97724566751066        0.69622313669663
H            0.37967367398201        0.03334284082266       -0.93980373948693
H            2.39062161690683        1.87057107937209        2.33150826342466
H            3.31132462508771        1.95953421358815        4.62681643346949
H            4.77064456821112        0.14938544065249        5.42893251508872
H            5.31149391995287       -1.74297754660666        3.95285038948780
H            4.38095577924248       -1.81686477780439        1.66230973344063
H            2.80016754633440        3.11149253764935        0.01778696431751
H            4.01036172190490        4.43084390173159       -1.69378247782882
H            5.26589884347662        3.29054981908523       -3.46894081996739
H            5.32988796734830        0.82324660343419       -3.56156317239190
H            4.70029159348765       -5.23378735821661       -2.66417382241141
H            3.54839409176596       -6.68499253460671       -1.03718900687397
H            2.23809844363293       -5.70191468693865        0.79789034494730
H            2.06314305780387       -3.25456175870214        1.02904016246514
