43
 energy: -9.578734784451 gnorm: 0.000910858639 xtb: 6.5.0 (97a52f5)
C           -2.91938504926400       -0.56712968852010       -1.75876170324889
C           -2.80793513977082        0.64278467701725       -1.04421389082855
C           -1.60972844424703        1.11222700186367       -0.55298427610846
C           -1.51762119428326        2.37932618122966        0.18603057660630
C           -0.29114562657266        3.02743411780309        0.34331177188113
C           -0.18931572978429        4.22057255538269        1.01287045512161
C           -1.31552324215061        4.81595406065343        1.56920433673612
N           -1.20766251215917        6.05025744690904        2.29337064667759
C           -2.03349943997944        7.18402091814350        2.13964703493058
C           -3.09526136234927        7.43087902723571        1.27026618604335
C           -3.72833301844247        8.64789670051378        1.32886223270776
C           -3.32246754767381        9.62831487444602        2.23836865872902
C           -2.27370106602671        9.40476211807845        3.09709788861634
C           -1.61833584864143        8.17367999541174        3.04683481934943
C           -0.50210093960029        7.63641073748505        3.78776660329385
C            0.28511676347565        8.16162365045795        4.81345504099522
C            1.28306022251875        7.38028667897088        5.34370815109604
C            1.50585357639033        6.08278484805820        4.87492728226580
C            0.73789447618615        5.55213027561665        3.86810729897613
C           -0.27097566464252        6.33575517057551        3.30920447660611
C           -2.54272084265606        4.17673603632465        1.43012591320178
C           -2.64294335133723        2.98507469963844        0.75395613221098
C           -0.43233136353610        0.31218767823151       -0.81074009487211
N            0.80873885972305        0.56067894732633       -0.45262382493803
S            1.76154874778267       -0.66544437932406       -0.98631305073377
N            0.59040562143836       -1.56222913589370       -1.70594446822004
C           -0.55850251356207       -0.93509462781460       -1.54749057828247
C           -1.83561580015699       -1.34767912402672       -2.01082365008238
H           -3.88820910332943       -0.87718228703137       -2.11421643040973
H           -3.69665857261217        1.23008041674213       -0.90012286550908
H            0.59071428305503        2.56980999466668       -0.06346180976975
H            0.76144912874691        4.71460955883884        1.10912720978520
H           -3.39337166345726        6.67782866254092        0.56321443338916
H           -4.54997981628051        8.85232069178164        0.66234017854379
H           -3.83919552544640       10.57349660178245        2.26402913825843
H           -1.95275911083273       10.15495068244727        3.79804046342104
H            0.10265523860582        9.15882311176043        5.17279701225543
H            1.90057521083724        7.77023756525474        6.13572413949820
H            2.29055574108005        5.48896685424429        5.31410764008280
H            0.89542131481799        4.54972496294486        3.51289292117619
H           -3.41154030763645        4.62187264323936        1.88235149031759
H           -3.59945151695009        2.49918375319652        0.68474962572883
H           -1.91902787127924       -2.26992465421567       -2.55708311551509
