62
 energy: -13.758888229067 gnorm: 0.000666594271 xtb: 6.5.0 (97a52f5)
C            0.13038799054949       -0.08073468798289       -2.62129755263698
C           -0.46637129113087        1.00650059167096       -2.01584482190787
C           -0.91703032057592        0.92899984071102       -0.69836995840272
C           -1.48260677673632        2.09935524190332        0.00762894393797
C           -2.16174861966822        3.11677789032619       -0.66110802086164
C           -2.64383610251018        4.21103572001429        0.02809137487669
C           -2.46316157422191        4.31243288412369        1.39099332688799
C           -1.79982685457412        3.30895082211906        2.08601007309797
N           -1.60964322265110        3.37327282341027        3.50870964525953
C           -2.59945042566297        3.66456029248236        4.47089798121514
C           -3.93878256585402        4.02779776469817        4.32853350330700
C           -4.69221181122830        4.23506827969872        5.45774829450895
C           -4.13875870637955        4.08091833060164        6.73207749341743
C           -2.82588648495054        3.70894932562883        6.89165437158654
C           -2.04794119961433        3.49402000893002        5.75255516879365
C           -0.67870772090179        3.07166425983307        5.57942707347259
C            0.32404018254659        2.73873594986135        6.49196037380503
C            1.55112680355082        2.35059186782073        6.01093041251214
C            1.79880892228265        2.29380851107410        4.63651029662194
C            0.82228305963975        2.61859282753806        3.72757159131031
C           -0.43423012149481        3.00387822522629        4.19731396684439
C           -1.31959223696453        2.21703845201295        1.38252991254228
C           -0.75465823470075       -0.27454747701319       -0.02295658679725
C           -0.12955538949841       -1.36277364059520       -0.60977374328420
N            0.11516194167191       -2.54337722837201        0.17123264269997
C           -0.11886498929098       -3.87949762708889       -0.21221779639757
C           -0.62889760325017       -4.41757901823362       -1.39345405074125
C           -0.76233460523395       -5.78051515351990       -1.49503974575230
C           -0.40093469432496       -6.62091003829275       -0.43788550043900
C            0.09191737093031       -6.10704228377895        0.73723464501216
C            0.23218412742313       -4.72316876510278        0.85618468025750
C            0.69719216007419       -3.88258146862367        1.93452849285528
C            1.16435078755817       -4.16913622135034        3.21876741863076
C            1.54484566032765       -3.12760042765711        4.03073823201218
C            1.47507527831047       -1.80484487691027        3.58423387875897
C            1.02118912283363       -1.50814362916694        2.32314373342960
C            0.61742191906166       -2.55226849256452        1.48962034938274
C            0.30696124186383       -1.25673896558299       -1.92437610435701
H            0.47831991489604       -0.00398626423479       -3.63847476301059
H           -0.56333415983979        1.93355610855272       -2.55324372257240
H           -2.31604179239649        3.03949055291867       -1.72313585339516
H           -3.16236949189042        4.99264523283265       -0.50276320250569
H           -2.81845867314909        5.17374448391098        1.92888828256358
H           -4.36517656504130        4.12801624770732        3.34684801041531
H           -5.72754470780963        4.51837363929011        5.36121512216384
H           -4.75306580911995        4.25056600209596        7.60109402878791
H           -2.39367624140771        3.57769296715741        7.86797842031110
H            0.12521081792582        2.78653652094813        7.54808846304918
H            2.33573622962469        2.08971143579801        6.70206261085727
H            2.77298579133045        1.99444334021279        4.28592092164444
H            1.01541778488897        2.59508002735679        2.67019430759941
H           -0.80392581246958        1.44878228758236        1.92648806099163
H           -1.12117304950248       -0.37843595698208        0.98103719875659
H           -0.91789319619569       -3.76461608066261       -2.19722574576587
H           -1.15317421273303       -6.20984967760679       -2.40300529838663
H           -0.51482091126100       -7.68706332437022       -0.54604143904514
H            0.36666347511671       -6.74585088506385        1.55801363750987
H            1.21853646371896       -5.19002384048457        3.55355514257697
H            1.90467151625225       -3.33228928508388        5.02568192764933
H            1.78168581556632       -1.00564420833706        4.23915511028635
H            0.98371888000005       -0.49352604500990        1.97015311475754
H            0.80868291636749       -2.09363318638613       -2.37750833068625
