64
 energy: -14.481680842180 gnorm: 0.000534420390 xtb: 6.5.0 (97a52f5)
C            1.41155916918092        1.48982184931942        0.56151061313427
C            0.24192839205559        2.19801170495736        0.73156635091477
C           -0.96655193925849        1.53927824381242        0.90831708498412
N           -2.17004583518904        2.29418210805671        1.12723809200363
C           -2.75685635861595        3.18794246062141        0.21001744574561
C           -2.33064272065463        3.61052308261861       -1.04768811340973
C           -3.12711575924190        4.47497180605348       -1.75723805961801
C           -4.34516413929216        4.92357874109573       -1.23767985520422
C           -4.78293437365153        4.51025528038202       -0.00268748378893
C           -3.98366351121434        3.63200887975377        0.73132176786678
C           -4.16415499979845        2.98900131779775        2.01042975506851
C           -5.19683992629856        3.03058767427586        2.94884825340261
C           -5.08707127375593        2.26393458179702        4.08365946233576
C           -3.96723140089795        1.45597566874494        4.30131958088370
C           -2.94327576520958        1.40627278105554        3.38860046635035
C           -3.04000101428702        2.17608881917235        2.23040881892431
C           -0.99658197681687        0.13481172123472        0.89980137283277
C           -2.26784963702701       -0.58100664523478        1.07899846261601
N           -3.41819554596718       -0.21194635043780        0.46703036905700
C           -4.31461414789877       -1.09048237633568        0.88485104231094
C           -5.68884149794695       -1.21487692369122        0.60097302779426
C           -6.37793782785117       -2.23176549185603        1.17947011087762
C           -5.72991267994688       -3.14527766231701        2.04551357976132
C           -4.41160848444087       -3.02743617098280        2.32150329800954
N           -3.67410580749796       -1.99238711773125        1.74963121246197
N           -2.39826399409730       -1.65637695135409        1.86098187181281
C            0.19942837818342       -0.57973179827193        0.72007045542715
N            0.19093638562609       -2.01635814475297        0.67470943779595
C           -0.56756809623839       -2.81797975949018       -0.20259140444821
C           -1.41468987374162       -2.46844936389295       -1.25308082192359
C           -2.06795187856170       -3.46556599652779       -1.93351644112601
C           -1.88902760284596       -4.80863753114653       -1.58948314563051
C           -1.05582372673828       -5.17013325984010       -0.55859884791097
C           -0.38640103070735       -4.16694146693394        0.14449556459442
C            0.51453053598593       -4.20159082513590        1.27115760413910
C            1.02569495764086       -5.25098149256465        2.03685904720120
C            1.85851589995963       -4.95393064907128        3.08846240922334
C            2.18909407885038       -3.63017023148991        3.39386463714445
C            1.69384064965388       -2.58750910739073        2.65043007684022
C            0.85238286241530       -2.87251156694033        1.57677587627686
C            1.39144477065795        0.11212597996901        0.55912431957448
H            2.34370200822253        2.01431928287517        0.43043465567580
H            0.25099085874949        3.27383442875903        0.74575023380834
H           -1.39770458973200        3.25025799799459       -1.44278839844322
H           -2.81133144779379        4.81046710084423       -2.73138074747700
H           -4.95130953520800        5.59954852486772       -1.81804269057163
H           -5.72344950956484        4.84274398112323        0.39972211647061
H           -6.05824188072104        3.64969770583537        2.77075878150014
H           -5.87723134573829        2.28181026177157        4.81611967620227
H           -3.91041237321415        0.85831329236014        5.19615609960897
H           -2.08651656152869        0.77338511775663        3.53694230345436
H           -6.15993970099476       -0.50886041539793       -0.05900146669008
H           -7.43024639460188       -2.34852478821070        0.97946888385433
H           -6.29977488021635       -3.94454639007676        2.48947593124007
H           -3.90086524401510       -3.71049323751376        2.97424917241534
H           -1.56021758357666       -1.43109380579560       -1.49665585119732
H           -2.73390205106257       -3.20919577165414       -2.74095336797619
H           -2.41604777262068       -5.57070941752283       -2.13963439778659
H           -0.91796987894155       -6.20086836974482       -0.28361619598957
H            0.76013981065187       -6.26618282549588        1.80042784625168
H            2.25995855080323       -5.75221533212898        3.69076756718983
H            2.84001034049461       -3.42581492334736        4.22800553819216
H            1.93329309323338       -1.56535321639510        2.88308849858601
H            2.29894283286562       -0.44813501815680        0.41689851748985
