52
 energy: -11.579079647527 gnorm: 0.000662297596 xtb: 6.5.0 (97a52f5)
C            0.76212076008267        0.95595390865950       -0.53666322352504
C           -0.37685283672369        1.52241310090173       -0.00436796208628
C           -1.20810653204719        0.78386401870773        0.83094212144629
N           -2.39854992073304        1.36208045170272        1.39008502238913
C           -3.38762767738015        2.08009002473367        0.68655123173957
C           -3.48618904979454        2.42280806197862       -0.66185152431270
C           -4.58534686523661        3.12805665226272       -1.08634921307387
C           -5.59562409676629        3.49569254515569       -0.19258078989373
C           -5.52044869048042        3.15691303880714        1.13674774247245
C           -4.40845659478003        2.44025306194295        1.58297655506085
C           -4.04322732231115        1.92272471609115        2.87983324085417
C           -4.67912331816630        1.96607776502848        4.12200802234068
C           -4.06759557414998        1.36660200734134        5.19630502932543
C           -2.83281113887771        0.72622051624770        5.05590741711536
C           -2.19759030938370        0.67186847863605        3.83971542588990
C           -2.80866463949588        1.26688655542282        2.73595112162750
C           -0.86880167514352       -0.52776583626481        1.12199411976278
C            0.27620152338025       -1.10396096255895        0.59679433748881
N            0.61855521600658       -2.46258945257344        0.93506071644992
C            0.26854826611610       -3.61706550487444        0.20810028126099
C           -0.43806700958891       -3.76157877682780       -0.98436868453082
C           -0.65058261850336       -5.02709055909254       -1.47345371238824
C           -0.17167338955581       -6.15224756657721       -0.79483954831864
C            0.52591170011893       -6.02581815319042        0.38245801469282
C            0.75008831986902       -4.74586512814781        0.89303305931317
C            1.41771721438662       -4.27249408038766        2.08342951092563
C            2.07494970784611       -4.93266074635795        3.12331358581425
C            2.61557072202934       -4.18374914148258        4.14095090185812
C            2.51265695445269       -2.78903508844461        4.14306985800703
C            1.86950676202590       -2.12512943270576        3.12751345239561
C            1.31784237157522       -2.87090515646252        2.08735829062489
C            1.09013868719237       -0.34977270518033       -0.24039971704947
H            1.40022685459895        1.53712686350447       -1.18199937889942
H           -0.62847449662155        2.54703140738162       -0.21486849626805
H           -2.71259802198252        2.12531619422349       -1.34668512890144
H           -4.67241362284511        3.40175517416519       -2.12509667220843
H           -6.44683901040570        4.04953267424052       -0.55324936774891
H           -6.29636405814168        3.42954946308333        1.83024057884344
H           -5.62853918003116        2.46186938744017        4.22171937043905
H           -4.54438012516956        1.39179330057794        6.16247191918548
H           -2.37250567008051        0.26928576973452        5.91650734464801
H           -1.24377942937429        0.18837083255057        3.72767531810580
H           -1.50566583895015       -1.11296950117010        1.75793343029825
H           -0.80334439724174       -2.88874575604222       -1.49569159242970
H           -1.19537031802756       -5.15615510382935       -2.39428339504664
H           -0.35442463611767       -7.13327698349937       -1.20160265748819
H            0.89476759095073       -6.88635935858223        0.91219605877608
H            2.14917743618260       -6.00573523491814        3.11478300640007
H            3.12745660414378       -4.67796411595688        4.95028473949192
H            2.94664634359028       -2.22724145403101        4.95387912963576
H            1.78562505533553       -1.05289038011687        3.11663268196077
H            1.97854997422602       -0.80166979125415       -0.64569157247321
