51
 energy: -11.440008994562 gnorm: 0.000176403105 xtb: 6.5.0 (97a52f5)
C            1.52525239640392        0.06338955064340       -0.00131608203910
C            0.77534346037089        1.19862884014893       -0.16719356362916
C           -0.60811592421093        1.10892789427359       -0.16754608972531
N           -1.39413218298230        2.30193337522823       -0.29729115563264
C           -1.15226673170762        3.44644939689598       -1.08595561179690
C           -0.15954700021481        3.72645491508713       -2.02509816753085
C           -0.17998768050426        4.93934623690392       -2.66833986510562
C           -1.17525584162164        5.88292143527993       -2.39815166724680
C           -2.16854923935425        5.62012458190390       -1.48663339582098
C           -2.16302326046797        4.39008479392102       -0.82667674212053
C           -3.06332434220438        3.80513698665547        0.13802229711176
C           -4.22233389650076        4.27330533882353        0.76043667611360
C           -4.86984472069673        3.45197999345557        1.65251063693546
C           -4.38873173519659        2.16889386639436        1.93242056075957
C           -3.25210260694332        1.69592757475053        1.32611118447045
C           -2.57944148553567        2.51928575473308        0.42632206485272
N           -1.25655660648450       -0.04345917132133        0.00359672480354
C           -0.52092879740830       -1.14235246120559        0.17355622293872
N           -1.21251041107411       -2.39145519628548        0.31294438401599
C           -0.88601031697501       -3.50343652315248        1.11729741988157
C            0.12424482612492       -3.69452310922824        2.05996058072290
C            0.19372554494399       -4.89577713553221        2.72133542115348
C           -0.72837114814902       -5.91476673321730        2.46570582487724
C           -1.73770290455013       -5.74048709053458        1.55055342614508
C           -1.82330985436706       -4.52350888943476        0.87215202145974
C           -2.76425994008589       -4.02115238940150       -0.10034396447282
C           -3.88499855678976       -4.58321163781778       -0.71506718552749
C           -4.59197094056425       -3.82500853013980       -1.61780830150657
C           -4.20815110604073       -2.51350067485525       -1.91578775524509
C           -3.11018327738840       -1.94838686474621       -1.31709039604172
C           -2.37787030421714       -2.70679644643989       -0.40687638022398
C            0.86529204557170       -1.12589247367631        0.16790255271059
H            2.60221763289460        0.10476364328666       -0.00325913458207
H            1.24519991207546        2.16081958595741       -0.26632884860617
H            0.58912410109960        2.98883016703580       -2.25079185725904
H            0.58010672276317        5.16666603527213       -3.39769191083477
H           -1.16636078779256        6.82656758261523       -2.91844854187902
H           -2.94470717443586        6.33577554780195       -1.28029226822929
H           -4.58831609851017        5.26025551324456        0.53894231456786
H           -5.76371755876897        3.80032075263134        2.14327461221257
H           -4.91911053572040        1.54317520231984        2.63123013489796
H           -2.87663660931169        0.70611402222162        1.51090007425139
H            0.81599587748315       -2.89992219625673        2.27362191667910
H            0.96808950123425       -5.05488051973259        3.45373965496017
H           -0.64976302275515       -6.84712045261499        3.00029995733020
H           -2.45835578512711       -6.51491528814233        1.35543336347533
H           -4.17630141308111       -5.59153344532545       -0.47946869565985
H           -5.45725637010924       -4.24595611944031       -2.10287108632548
H           -4.78381322821105       -1.93895888595606       -2.62266512007224
H           -2.80994230293788       -0.93580949668607       -1.51572378187428
H            1.40768967803023       -2.04916685634507        0.26718754164412
