92
 energy: -16.866717762618 gnorm: 0.000707515909 xtb: 6.5.0 (97a52f5)
C            0.13781752098875        7.49125208211812        3.54004016109383
C            0.27749306767436        8.80379916337900        3.92699079732993
C            1.11679541295554        9.65912858497409        3.21995390667322
C            1.79520670305595        9.18294507938701        2.06600240756420
C            1.66833411632146        7.81761791233366        1.69309357752021
C            0.82816749841622        7.00056788712730        2.45329999901887
O            2.39263861308631        7.38612659530823        0.58435394672863
C            2.19085980998240        6.02728928858718        0.20801646666449
C            0.86683979306043        5.79935827884140       -0.51745795787297
C            0.86621476182510        6.24613117764167       -1.98162923078071
C            1.12649669324696        7.74371928896237       -2.20953177316344
C            2.60905094169204        8.11732082759755       -2.22712777442597
C            2.85489194916392        9.57858557051657       -2.58913304365527
C            4.32277472878072        9.97314449667278       -2.45581556147122
C            4.57068658930855       11.43945434055797       -2.78130777477103
O            5.83547612141096       11.90432221159139       -2.29479101349177
C            5.77150226873181       13.13505079917448       -1.61181292558312
C            6.65708553623936       14.14097197158516       -1.99644428126011
C            6.59149841819620       15.39529179177685       -1.43854603999338
C            5.62729136912442       15.68958400506854       -0.50227253288430
C            4.71786346681584       14.72245004570235       -0.06822280310334
C            4.83330722924062       13.39243642806081       -0.56948685693287
C            4.05395292782439       12.28989808958319        0.03215959329773
C            2.63065012853552       12.31414685050349        0.04641754078428
C            1.90805749658284       13.35838766246764       -0.57357455383772
C            0.54655547958674       13.38387991812570       -0.57026773707425
C           -0.17308968216868       12.35718991973400        0.04522961569536
C            0.48448172030984       11.32314521805585        0.63838735819437
C            1.89650738449105       11.26121675659535        0.65975833386187
C            2.56620262909828       10.15916092951442        1.26419909136233
C            3.98449181150899       10.10062940770013        1.19275637296976
C            4.69153828779281        9.01108787076055        1.74709102571259
C            6.05191963131788        8.96391659341091        1.72580078963241
C            6.77981367169544       10.01220089859785        1.15762239071366
C            6.13380195239328       11.08224077571684        0.61677734316893
C            4.72252281745187       11.16547899025576        0.60136660455854
O            3.70025403252550       15.01419994002360        0.84566856309609
C            3.31050720410708       16.38782004231777        0.88378463231467
C            1.84739098228922       16.55982109538344        1.26359388533369
C            1.53501986379939       16.01181327776647        2.64899475375681
C            0.04212623906626       16.09290442128006        2.98899639250174
C           -0.32479943665628       15.56650821512268        4.39028435250512
C           -0.64088878729990       14.06733511845611        4.44229759468779
C            0.50750521043776       13.18782499554917        3.96721048682028
C            0.28076441344821       11.69693872748359        4.16170635090836
O            1.37653108911567       10.97964029420157        3.59874069082604
H           -0.50706152858435        6.83602322987016        4.10299139485410
H           -0.23370567902576        9.17060803583841        4.79856948097542
H            0.70578217395631        5.96667410571417        2.18917270216182
H            2.29561205097960        5.40817685592321        1.10618298170228
H            3.02812892038526        5.74249939165889       -0.43901274397247
H            0.07302851222454        6.33125802096708        0.01819494823832
H            0.59665574641204        4.73610240019537       -0.46111037686091
H           -0.09910600215697        5.97357004371982       -2.43166071549435
H            1.61015686189614        5.66582992501005       -2.54080633941186
H            0.60456091446013        8.32990943971987       -1.44349759244333
H            0.68208141518831        8.05893308121809       -3.16313505306144
H            3.14895090094602        7.46925993738113       -2.92808690973121
H            3.05532776266699        7.91408982576931       -1.24877936686768
H            2.24403006496121       10.22110788671633       -1.94327606185931
H            2.50346133844487        9.77918062596311       -3.60836973088974
H            4.95350302031945        9.33772218576955       -3.08784641954282
H            4.66134415657945        9.77412121285160       -1.43378537951891
H            3.78085696982475       12.06768745224348       -2.35829732861549
H            4.54546729904685       11.61456530798004       -3.86276218254212
H            7.38143274338792       13.91595784474920       -2.75876973057984
H            7.28854555320277       16.15688965046709       -1.74842928977213
H            5.59687073253065       16.67401114350110       -0.07168842844166
H            2.45689973297632       14.15465912363200       -1.04423746510901
H            0.01969678724927       14.19681916318068       -1.04262724460483
H           -1.25049155282487       12.38476185348025        0.04606896279734
H           -0.07380067226045       10.52853905042468        1.10109822066977
H            4.13198039797846        8.20120639576887        2.18074775964172
H            6.57044323335034        8.11900722508471        2.14870017515589
H            7.85672555594617        9.97032575219243        1.14703790355489
H            6.70410426501395       11.88212508260908        0.17994219747030
H            3.49269040946148       16.82572349551294       -0.10444525640832
H            3.96363771870771       16.89740347207415        1.60024355519291
H            1.22510668274092       16.04223770288573        0.52439113771876
H            1.55532373679671       17.61609232934109        1.20653746304502
H            2.11710911232776       16.55708202461839        3.40170714727178
H            1.89803909310443       14.98132250480374        2.70918894916770
H           -0.54047129354174       15.55408252923271        2.23214314345068
H           -0.27288635210488       17.14036025125636        2.89056262517788
H            0.49457562902634       15.79419067455955        5.08278387380798
H           -1.18795000202482       16.12392578020901        4.78033696900998
H           -1.53181912731061       13.85558652905815        3.83812167776494
H           -0.91389208572730       13.77815914471737        5.46553860464701
H            0.69425755725991       13.36040219368148        2.90168614135500
H            1.43551614848217       13.47284370885245        4.47560007944937
H            0.20023806102685       11.43694206184913        5.22236934026414
H           -0.64127663987003       11.37360051217982        3.66650301619656
