86
 energy: -15.968960461056 gnorm: 0.000608399811 xtb: 6.5.0 (97a52f5)
C            4.04191918225746        3.32447322193242       -5.02933169822940
C            5.18189062540802        4.01590438643510       -5.35597567384861
C            5.41832760158774        5.28675677838484       -4.83562318007700
C            4.46613261204288        5.89163928642328       -3.96767843527579
C            3.31724733842617        5.13641091473439       -3.59431224259186
C            3.12732851130369        3.87174007708777       -4.16042075626374
O            2.42123418719564        5.65123176567264       -2.65162049576667
C            1.74455117204051        4.64175459993605       -1.90115878902469
C            1.14688016619229        5.15036514773585       -0.59307603531577
C            2.11287169551418        6.07410365153789        0.14800941875129
C            2.10698374882718        7.47289899540437       -0.45866283448468
C            3.22417232386954        8.38074090279750        0.04043335733133
C            3.07404508062702        9.78500408625484       -0.53328916641229
C            4.28630175644052       10.67283247011179       -0.32600256390866
O            4.11666420275396       11.92746475416254       -0.99116236078024
C            5.13599115382671       12.31033512490475       -1.88092646888892
C            5.50677321703119       13.65463213290348       -1.81989066148599
C            6.50925310939075       14.16100289325041       -2.60974364451431
C            7.15250486493660       13.34881528544850       -3.51172455057965
C            6.79245558275947       12.00812062848867       -3.66215801530086
C            5.77975924016389       11.45669925990193       -2.82448488042408
C            5.38900636393518       10.03908138023458       -3.02226815740971
C            6.27650719828999        8.99110632448386       -2.65258989826488
C            7.51593120028881        9.28099542819147       -2.03950130869726
C            8.36025775879578        8.28944855809200       -1.64257769718505
C            8.01006193418988        6.95108007737409       -1.83666053778208
C            6.82793119946818        6.63172143643764       -2.43243370798615
C            5.92711932136652        7.62851215645852       -2.87164836153480
C            4.70270255076496        7.28030048351489       -3.51387454669959
C            3.79718427797586        8.32996889596002       -3.84964013539221
C            2.55529528946505        8.05529231879092       -4.46463945631968
C            1.69989825706720        9.05371015596277       -4.81996436315967
C            2.04180015638434       10.38898028047904       -4.59065592510010
C            3.23284345350622       10.69975957670184       -4.00882166386728
C            4.14387143257642        9.69380582655330       -3.61736731613558
O            7.39266599468810       11.18687986300830       -4.63247520648083
C            7.56125901885483       11.81128484671293       -5.90645507712105
C            8.41314927254497       10.98143120903466       -6.85046732684498
C            7.82630028818532        9.59817570809433       -7.09220895251123
C            8.66632181756295        8.77140765279347       -8.06524070526212
C            8.09481613668398        7.38665355997161       -8.38242941283278
C            7.95790359120919        6.48463692609065       -7.14383198988276
C            6.59047206241467        6.56240922577486       -6.47713613971757
O            6.60991483416910        5.96508195504644       -5.17855995400410
H            3.86899993974951        2.34587691034005       -5.44691798878985
H            5.91489000773803        3.58751853602652       -6.01601325827317
H            2.24018988404221        3.31469789764064       -3.92157183226365
H            2.48360847304388        3.86054953139653       -1.68663958451994
H            0.97120328948298        4.19947163855823       -2.53926341259773
H            0.85372789092220        4.30094704932906        0.03841710432402
H            0.21950276775206        5.69847788887696       -0.79775221578674
H            3.12450402244482        5.65301982297230        0.10496116171146
H            1.86377908564427        6.13618059258420        1.21548661734179
H            1.13493711584663        7.94794929470618       -0.27595311621161
H            2.17701026419306        7.39240541518535       -1.55020203022158
H            4.19588717050312        7.96026603975214       -0.24670584506301
H            3.23255400492190        8.41572326269701        1.13631792953668
H            2.18608140682768       10.27405542355446       -0.11616983833918
H            2.86976206440425        9.71796309518420       -1.60601417897289
H            5.20366626972596       10.19355202637803       -0.67819507891314
H            4.44021264922469       10.88244104825727        0.73833134530946
H            4.99867133105976       14.28528505512598       -1.11226916156814
H            6.79405572906732       15.19665546786266       -2.51878255556464
H            7.96408258399873       13.74822379099180       -4.09120257317861
H            7.79108107834438       10.31071845840198       -1.89294040783623
H            9.30161064553958        8.53479731240716       -1.17870572120557
H            8.68308539109998        6.17092622823779       -1.52059879901815
H            6.57069472293833        5.59941014290304       -2.59208667695825
H            2.28034196250417        7.03039869320295       -4.63716287634126
H            0.75406324511845        8.81571407057663       -5.27851731199733
H            1.35914243612820       11.17283097390737       -4.87538601919353
H            3.49176180620535       11.72845139793458       -3.82965570783265
H            8.00397588262003       12.80167937166619       -5.77036370410316
H            6.55827077021608       11.96266033370703       -6.32086682126993
H            9.42040177692179       10.87855003670924       -6.43022488426849
H            8.54238350970783       11.50276368080787       -7.80727781793888
H            6.80160124839237        9.69150557401358       -7.47113633572051
H            7.73712860559852        9.08212389440444       -6.12903477192647
H            9.67830468721235        8.66068872547543       -7.65630121786983
H            8.79758844647790        9.34076664189481       -8.99469600847978
H            7.11626622235391        7.48842669595893       -8.86704486857112
H            8.73404218767708        6.89745442022235       -9.13069313111143
H            8.72677345244568        6.74988347094436       -6.40903552806828
H            8.16244540480249        5.43598324244338       -7.39477007313552
H            5.82570779971009        6.06730572207010       -7.08612271535004
H            6.25658198440751        7.59579091542183       -6.34418257248705
