80
 energy: -15.090569869602 gnorm: 0.000472753197 xtb: 6.5.0 (97a52f5)
C           -0.79995236019346        5.37595722137651        3.27401912130748
C           -0.39852741519514        6.48581557992336        3.97918377719803
C            0.21065491482843        7.57093873337603        3.34849333322937
C            0.44626319727139        7.49767621045717        1.94519998348532
C            0.04817031458530        6.33313236951932        1.23041223103360
C           -0.58707293647445        5.29882221456429        1.91758889436394
O            0.34787405570378        6.27358114173459       -0.13442862923031
C            0.44398132977410        4.95087322053645       -0.64999478496507
C            1.17094374900374        4.88768392144202       -1.98659548348125
C            2.52560402245061        5.60367716526975       -1.94634209925021
C            2.40269096077774        7.10884305203983       -2.17180877713521
C            3.73171716249509        7.85261751431172       -2.03368754555683
C            3.66642969089670        9.28134245836377       -2.56049880356722
O            4.78339642113202       10.07524253546535       -2.14132023254359
C            4.46531943425131       11.38019868638481       -1.72050446841339
C            5.26534404380211       12.42703429974319       -2.17886428766165
C            4.99662069762785       13.73423379728133       -1.84239105607610
C            3.92227951682187       14.04125855452175       -1.03897952932556
C            3.10073297702880       13.03602463930716       -0.53308102394941
C            3.38293278412835       11.67750195127636       -0.84609725940346
C            2.63328859289768       10.61088665527851       -0.15047223897050
C            1.23233744073619       10.45382392300778       -0.34889703306668
C            0.51692911827547       11.29882650580063       -1.22637296220943
C           -0.81872449417706       11.13657724984788       -1.43684378448733
C           -1.51469084137963       10.11492332719475       -0.78511774602072
C           -0.86120916174701        9.27729988182710        0.06670073992546
C            0.52277113099257        9.41456568080335        0.31205496771324
C            1.19260845152530        8.54641276188724        1.21678362101486
C            2.59256983290602        8.69871266046476        1.41210464071692
C            3.29988943042718        7.83891069437367        2.28089978492923
C            4.63868031177527        7.98349548225998        2.48256756230683
C            5.34163301395504        8.99843313472353        1.82784516694931
C            4.69347515337394        9.84603474557361        0.98160118374659
C            3.30739913688663        9.72412218785037        0.73595185131601
O            1.99748825993460       13.29447385572866        0.28848708211106
C            2.15373045920947       14.37315303414360        1.20697081379204
C            1.19627833668334       14.19343696400541        2.37519518645924
C            1.38079900977822       12.82012171058229        3.01380813830323
C            0.27163999331898       12.44770734904480        3.99600063904335
C            0.44890462080634       11.05914988032976        4.61375702121095
C            0.48270536656370        9.94375996800578        3.57974447040374
O            0.55557605070690        8.65115968959370        4.17730866447252
H           -1.28407175072726        4.56156044587043        3.78806063030940
H           -0.56313641038819        6.54728715927217        5.04012843287174
H           -0.91729013161606        4.42886292906619        1.38026244900379
H           -0.57048422478258        4.54416348035236       -0.73199128666597
H            0.98391950639815        4.35252876106013        0.09313195096745
H            0.54844020956466        5.34338247423342       -2.76515534199167
H            1.29696170112895        3.83853900354564       -2.28601285260008
H            3.20461199389134        5.18617489857943       -2.70161053372866
H            3.01227025209865        5.41218240779831       -0.98243944709437
H            1.66711736675182        7.52664614396517       -1.47358094828767
H            1.98377576491168        7.29269105106253       -3.16869950651683
H            4.52868830534847        7.31062422915406       -2.55525199171687
H            4.04110188622276        7.86646054420594       -0.98283417167778
H            2.73958763746657        9.76785489405504       -2.24742131921248
H            3.64942282407563        9.29442081454908       -3.65630459525798
H            6.09396758591464       12.18648412789917       -2.82056385121993
H            5.62522197433795       14.52364110583642       -2.22081441122098
H            3.70179220566660       15.06628983777483       -0.80271902373229
H            1.04541479470189       12.09473654631960       -1.72064933911261
H           -1.34390529967395       11.79829074491555       -2.10599010481280
H           -2.57090906479149        9.99124103779807       -0.95995481945829
H           -1.39704080032965        8.48582700714811        0.56052958010909
H            2.75897515110720        7.06238456433721        2.79249567448664
H            5.15925170045819        7.31736062969749        3.15086564939289
H            6.40092654434675        9.10701848749071        1.99345202748566
H            5.24218183508094       10.62083578205639        0.47661125911536
H            1.97845630788347       15.31327167654903        0.67236845310355
H            3.19224422100662       14.37092939157086        1.55590410194481
H            0.16826077107072       14.27914329460064        2.00514796008425
H            1.31709594208760       14.98931068788867        3.11998055246037
H            2.35876715753066       12.76295459262444        3.50684445267315
H            1.42497960336819       12.07398770562067        2.21098911668475
H           -0.69486060314341       12.49373745779624        3.47933664360447
H            0.21403555746494       13.20956798005156        4.78370884937137
H            1.37247251572965       11.02511441899609        5.20255402828719
H           -0.35640520709995       10.85161943713211        5.32847728690306
H           -0.40905787935965        9.97527343577691        2.94438977365219
H            1.35671828212922       10.05949820412646        2.93508354207972
