103
 energy: -21.118620841276 gnorm: 0.000441996963 xtb: 6.5.0 (97a52f5)
C            4.34692604586975       -5.41810277907108        3.11236776991792
C            5.76254948126286       -5.14831450947161        2.56971518052463
C            6.55669761277470       -4.38064786451543        3.64421200252126
C            6.47812418587319       -6.48481044713931        2.29991523606246
C            5.65831500346098       -4.35178594906202        1.25991570969445
C            4.97947469655916       -4.89471950155976        0.17648746765698
C            4.85115540107454       -4.20408636550965       -1.00681035419963
C            5.39888147215119       -2.93399850653722       -1.15724666616319
C            5.28378565959409       -2.15299124731052       -2.38689454731141
N            5.80073323881083       -0.93819273185296       -2.49926709579796
C            5.50877500882683       -0.50933843916804       -3.74714468227549
C            5.82124894409458        0.75723419041242       -4.35298530090313
C            6.51017853343319        1.74241929608105       -3.64171362093469
C            6.76796628461771        2.95939268649471       -4.20817521421971
C            6.34484754558615        3.24357495326717       -5.51408793187638
C            6.58973141533773        4.57168818519028       -6.11798335683922
C            6.94347270909307        4.68879337765412       -7.48333716219110
C            7.14845682308929        5.90446223947767       -8.05735069737054
C            7.01277996786295        7.09295468259526       -7.30262446625685
C            7.20919360541692        8.37226347433050       -7.86829591014679
C            7.06800579310153        9.49601578407816       -7.10988694935839
C            6.72651059631065        9.39977278774488       -5.75472313420831
C            6.52920084075231        8.18205435504340       -5.17699624592658
C            6.66591210841905        6.99522548365063       -5.93415378972965
C            6.46074522524909        5.71941184553843       -5.36956632535850
C            5.67221077726973        2.26039794024255       -6.22408961063844
C            5.39667447605281        1.00402951129713       -5.67793120279071
C            4.67271932710420       -0.03343576492629       -6.42153147626285
C            4.28012024726963        0.14952163539300       -7.74972747735707
C            3.58930205923463       -0.82097510266662       -8.45821109616272
C            3.20167492632635       -0.58991182088048       -9.86712997703733
C            4.08924492679566        0.06033340058872      -10.75760459174517
C            3.74911614475718        0.28512852098112      -12.05475698963962
C            2.49094950078140       -0.12508118472242      -12.55357638776298
C            2.10336717991806        0.09638993133066      -13.89360670172308
C            0.88096537572249       -0.31000761256871      -14.33895488874355
C           -0.01152451943483       -0.95525424730940      -13.47327436938026
C            0.33041003865399       -1.18597771809328      -12.17497247399321
C            1.59052312440543       -0.77816310828994      -11.67848789752724
C            1.97497223625855       -0.99778945469884      -10.33938448352517
C            3.27412663093703       -2.02392090803524       -7.81240369124485
C            3.65087940142064       -2.23859951834696       -6.51699510072153
C            4.35539538730190       -1.26552118183490       -5.79912071070053
C            4.78621069413314       -1.48009718721508       -4.44483628961820
N            4.63762556257224       -2.54462602689053       -3.57336652357342
C            3.93700169267253       -3.77615969901869       -3.84763365101349
C            4.60885770480717       -4.86701882464860       -4.37587356560215
C            3.94153731141852       -6.04809456422481       -4.61036649985495
C            2.58730997955999       -6.17930575682007       -4.32802086869010
C            1.88493047449495       -7.52135490083774       -4.58492014219280
C            1.98578503216232       -7.87088944414141       -6.08097899138208
C            2.56670477366019       -8.61938166557323       -3.74751569650263
C            0.39455099129445       -7.47111200884218       -4.19656386475682
C            1.92062917293065       -5.07478870808663       -3.80993872648658
C            2.58312551653516       -3.89085950835846       -3.57402473517679
C            6.08238566453851       -2.39144206846051       -0.07429771590021
C            6.20978624615281       -3.08500958995350        1.10846356221206
H            4.38736895771287       -5.96429732154408        4.05448042056303
H            3.75938476654618       -6.00810271750574        2.41017092338402
H            3.81737985239287       -4.48187596059638        3.28730550218775
H            6.61902696829511       -4.95922838757035        4.56569637668314
H            6.07708100368844       -3.43197470718343        3.88379992865657
H            7.57488630837214       -4.18065748501401        3.31143037020314
H            6.58237789030071       -7.06321283373006        3.21764912045304
H            7.47484355358827       -6.31274612304187        1.89444555081311
H            5.92629274100255       -7.09303787546094        1.58449561317547
H            4.54214928442850       -5.87412069252012        0.26534651018072
H            4.31877047510402       -4.65065645816394       -1.82400215589651
H            6.82661040592795        1.52538221944629       -2.63625093218093
H            7.30530743833972        3.71050296469658       -3.65544087764089
H            7.06208353720677        3.79134874558468       -8.06568970871129
H            7.41795518066933        5.97684315413132       -9.09697017552384
H            7.47003714254922        8.44740944065414       -8.90994852894936
H            7.21853610799760       10.46695288020289       -7.55296977958600
H            6.61957263336594       10.29747280262439       -5.16782170921904
H            6.26525188070659        8.10849459970998       -4.13600334594442
H            6.17640941657801        5.64774612411357       -4.33554027056643
H            5.32991058096390        2.49926325034690       -7.21251589457102
H            4.50817191614345        1.07050709605571       -8.25069509555901
H            5.05559456800740        0.36484311880074      -10.39420052699256
H            4.43687195455774        0.77812258275525      -12.72007353077148
H            2.78851341203974        0.59277414215673      -14.55916133148351
H            0.59576700488966       -0.13448213399473      -15.36345110826428
H           -0.97489684050993       -1.26970770218196      -13.84038454985416
H           -0.35597209376138       -1.68148861899363      -11.51008745461051
H            1.28437389124146       -1.47966367044454       -9.67149599671281
H            2.74697452384053       -2.78838931036835       -8.35672278467849
H            3.41218149183106       -3.16941098550049       -6.03753227698148
H            5.65925535813270       -4.77452800408669       -4.59083074032995
H            4.48024699569782       -6.88679086774454       -5.01588672574456
H            3.02367477644259       -7.97297246348241       -6.39514744822374
H            1.52692134204253       -7.09218092019014       -6.68975324128493
H            1.47861766233292       -8.81101303606705       -6.29680578286151
H            3.61474552482369       -8.73368084446564       -4.02112931238963
H            2.07769793429510       -9.58217752294407       -3.89407156612679
H            2.52284054061462       -8.37652080012762       -2.68602196323688
H           -0.13812367767316       -6.72021602512391       -4.77951856841045
H            0.27229611219627       -7.24036419691880       -3.13857003216845
H           -0.08524817894408       -8.43213500251986       -4.38111832316301
H            0.87120714391909       -5.13792817266875       -3.58367537161347
H            2.06380043984050       -3.04042854149822       -3.16747318295166
H            6.51066329026158       -1.40959320091508       -0.17906382832486
H            6.74385252496232       -2.63069890293363        1.92384672587031
