87
 energy: -19.642598344888 gnorm: 0.000879509898 xtb: 6.5.0 (97a52f5)
C           -1.74520156630221        3.21448188898691       -3.78828172739326
C           -2.61638034322916        2.34418478789055       -4.40962686599764
C           -3.26711349855467        1.32976035320092       -3.70015824579549
C           -2.96090391071300        1.18435027300497       -2.31083514710879
C           -2.08214619283334        2.09484527475765       -1.67580704837274
C           -1.48395283843901        3.10720705717746       -2.44177490048881
C           -1.83343405177889        1.95496583803536       -0.28510737625921
C           -2.41696005781078        0.95754104848339        0.43388564434503
C           -3.25793876912564        0.05810605317438       -0.22785386644834
N           -3.49702719177180        0.18594574582998       -1.56018570412503
B           -4.40793605179299       -0.96337726289954       -2.00415880413165
O           -3.65759316605005       -1.92146727566661       -2.85411542941834
C           -4.00831966771287       -2.78817349777543       -3.84566231455873
C           -3.33210384558569       -4.00919907588254       -3.93320754708751
C           -3.68096213004167       -4.96159652142018       -4.86788933396388
C           -4.71009110240119       -4.73570818897089       -5.75258785179327
C           -5.41173922026046       -3.52039051908669       -5.73790791009464
C           -6.47487903931815       -3.25281408327505       -6.63975154042557
C           -7.12790896373810       -2.05899742855159       -6.61794759333941
C           -6.72094013258846       -1.08898122611376       -5.69730458524019
N           -5.70334123643406       -1.34025434737036       -4.83094556874679
C           -5.04442607358803       -2.52880097474339       -4.79638412836536
B           -5.45744845727801       -0.08247106252286       -3.99021333349705
O           -4.16698853966258        0.54909920997423       -4.36308138456629
O           -5.59218019371150       -0.41583299699768       -2.60150463344706
N           -6.60397752763719        0.84757813473816       -4.40482583965160
C           -7.25893781086567        0.22768996437176       -5.44541430853369
C           -8.28056541748691        1.09265137766445       -5.85884476814352
C           -8.21541105879023        2.23576139845374       -5.03143588396588
C           -8.99133603489662        3.44953949194017       -4.98239316413649
C          -10.03502398796888        3.68158328384456       -5.88415116990776
C          -10.75926639915025        4.84282592958073       -5.83137988059761
C          -10.45958273818242        5.80310223568922       -4.87719451581824
C           -9.44000240636754        5.59877795575835       -3.98041526876104
C           -8.67548802863041        4.42589290761063       -3.99817049264819
C           -7.59233432829052        4.19286550428337       -3.03121313274623
C           -7.25568022524900        5.10769837249688       -2.02558362612883
C           -6.25473565477628        4.84090869707157       -1.12126903003110
C           -5.55419195393473        3.64398982926402       -1.17345069364796
C           -5.85482173459979        2.72524298724179       -2.14086390180268
C           -6.84951144996294        2.99021007442921       -3.08291883130039
C           -7.15970427554489        2.04899931280538       -4.10621911959272
N           -4.77503871651797       -1.65288269532866       -0.68476773867620
C           -4.02035955813418       -1.05084087700815        0.29732155782139
C           -4.31139241606882       -1.70888641485334        1.49941861192992
C           -5.26802818128376       -2.70548949004020        1.20409093901556
C           -5.94510351508475       -3.68029625137667        2.02204811267355
C           -5.68031003043617       -3.79026703734723        3.39102138174418
C           -6.32668699493582       -4.72510355332451        4.15527334910352
C           -7.25439588894664       -5.57470670248843        3.57219301969791
C           -7.53225211463689       -5.48635313642028        2.23039920935527
C           -6.89478684539870       -4.54548547552093        1.41257746080947
C           -7.19751538715699       -4.43565278053135       -0.02232557364641
C           -8.14013641237302       -5.24500841555136       -0.66889810507912
C           -8.41662816696532       -5.09230383988682       -2.00721397140368
C           -7.77321672384343       -4.11696841565694       -2.75605575003120
C           -6.84664694721109       -3.30688984363341       -2.15976782003126
C           -6.53458305658485       -3.46480737233658       -0.80887072697749
C           -5.55944712613904       -2.63840096096797       -0.18008434555121
H           -1.27045825821511        3.99234659975835       -4.36341026112974
H           -2.83492472344655        2.44344846326194       -5.45779948943975
H           -0.81009398408825        3.79607061158403       -1.96294343957858
H           -1.17377399419852        2.65554232510651        0.19676137227603
H           -2.24177171299647        0.84745584328209        1.48950629181922
H           -2.54093538331350       -4.19680824262336       -3.22954421528824
H           -3.14581209904333       -5.89639760758279       -4.89958120556002
H           -4.98205674088364       -5.48792716750644       -6.47238014060865
H           -6.75973007371441       -4.01348861720266       -7.34573209671553
H           -7.93966092755680       -1.84899340128429       -7.29182110123966
H           -8.98544571269832        0.90840164082551       -6.64947407551229
H          -10.26293293327394        2.93469045070867       -6.62429945256347
H          -11.56174336696506        5.01143245776464       -6.53072602476130
H          -11.03268805064375        6.71518983531276       -4.83991531107452
H           -9.23103002864096        6.35969426658180       -3.25105997975348
H           -7.78826839209423        6.03796811657721       -1.95125024091778
H           -6.01590543729833        5.56345919079601       -0.35817118241761
H           -4.77765740508864        3.43567311817666       -0.45605578965775
H           -5.34740646155818        1.77708723597983       -2.17790735235223
H           -3.89489419069374       -1.48042724065183        2.46390524108237
H           -4.95847231901694       -3.13009651504440        3.83906407698145
H           -6.11501496985795       -4.80155139162864        5.20923218165868
H           -7.76077264580523       -6.30816329373410        4.17830088256328
H           -8.25705506632345       -6.15641040714382        1.80578797584876
H           -8.66397811464915       -6.00106266900218       -0.11344442167718
H           -9.14639807352521       -5.72923816176778       -2.47963332016332
H           -8.00150793273023       -3.99427234275352       -3.80195567597102
H           -6.36166564688440       -2.52260036196867       -2.71426203282698
