30
 energy: -6.763857899960 gnorm: 0.000472735796 xtb: 6.5.0 (97a52f5)
C            3.48266970788933       -0.03849842350611        0.00099308024274
C            2.81970634474934        1.17508195552213        0.00080716867333
C            1.42818938539827        1.22838089424257        0.00053259092770
C            0.71341425032083        2.47006669452018        0.00021604946884
C           -0.63581794643419        2.50337363694310       -0.00032738496154
C           -1.41377882362827        1.30078278767682       -0.00057817820834
C           -2.80134395297114        1.33729437241866       -0.00197544192420
C           -3.51972132602206        0.14159001185421       -0.00239368621885
N           -4.88543772689140       -0.10562688408746       -0.00691827087285
C           -5.08526669566232       -1.46179422161083       -0.00845654354240
C           -3.87196923136277       -2.10255887577215       -0.00393784344279
C           -2.86427451864994       -1.11061985289466       -0.00062645309493
C           -1.44112757338047       -1.18085732238385       -0.00022819812212
C           -0.73019787846396       -2.40876748144907       -0.00007600269043
C            0.62511095138226       -2.43247054694985        0.00035569617072
C            1.38128639268652       -1.22531431682984        0.00061380553538
C            2.78166586237656       -1.22222845894734        0.00089667154957
C            0.69551651237731        0.01372773579226        0.00045505656250
C           -0.72872601787282        0.03847709104671        0.00002481070810
H            4.56026964461021       -0.05651205555535        0.00117711922148
H            3.37802684588026        2.09527150678989        0.00083493305942
H            1.27803157564934        3.38632465540721        0.00033655197024
H           -1.15330278500274        3.44708548511839       -0.00068011848081
H           -3.32425532619285        2.27519888498447       -0.00333779594066
H           -5.60530237152926        0.62012923624177       -0.01142575440915
H           -6.05314592363656       -1.93812997046855       -0.01212822898495
H           -3.71117531145846       -3.16730220544348       -0.00333857943700
H           -1.28805828268696       -3.32867561756397       -0.00022231027491
H            1.15135101284359       -3.37126010203619        0.00049636968197
H            3.30573320568240       -2.16231861305967        0.00100088683394
