84
 energy: -18.944809856483 gnorm: 0.000484820469 xtb: 6.5.0 (97a52f5)
C           -3.86737754791639        2.28631040493566       -1.51645469486363
C           -3.88041854050727        1.03238757103205       -0.94320708018031
C           -2.71296713108575        0.47378111471667       -0.41962604545359
C           -2.69403429478292       -0.82112861023656        0.18061789388013
C           -1.55047074106648       -1.34149981602568        0.68039582489151
C           -0.32254083344388       -0.61832269479884        0.62641891945173
C            0.86653261818535       -1.14403230285762        1.13761286876697
C            2.03594559453250       -0.43283480273075        1.07209080729823
C            2.10312614091008        0.84286981606356        0.49725840933444
C            3.37405689507583        1.54061823035765        0.44734102364101
C            4.58406130081969        1.09558519078560        0.92511686139990
C            5.65884511995197        1.98911298710956        0.72760797162059
C            5.31251443380669        3.14902633506868        0.09124767699798
C            6.22672062826161        4.21126702819556       -0.23794141354312
N            5.89505704985985        5.34669022384727       -0.86671923468266
N            6.96241060881926        6.06218524162090       -1.00695370896433
C            7.98909755397877        5.39455078489519       -0.46915273843582
C            9.36313033798740        5.86403040039096       -0.43702556800556
C            9.72516121345884        7.07682888703171       -1.01993154692697
C           11.03298418901036        7.49372244780110       -1.00453520978033
C           12.01663587091982        6.71149068912642       -0.40498982655075
C           13.40384998743591        7.14124266658953       -0.41299173671836
N           14.41004394882246        6.44967600873868        0.13345490292175
N           15.50678412526848        7.10224321603705       -0.06557343581347
C           15.21647275712093        8.22238481207408       -0.74043415992109
C           16.18867621062264        9.20116422750039       -1.15092176571923
C           15.91627329242451       10.36080750545494       -1.82262708148994
C           17.05808305968602       11.14080468689476       -2.11081335331668
C           18.24633043693113       10.60472760014707       -1.67143290895534
C           19.57489658299470       11.16928976466139       -1.82625993482055
C           19.72800848512201       12.39792444075632       -2.48164306088987
C           20.95412603858097       12.98067322575326       -2.66694519783724
C           22.11895879831912       12.36410017245653       -2.20425579064722
C           23.40555779368099       12.95060705836497       -2.39005246634255
C           24.52601824451413       12.34258096582441       -1.93952193240578
C           24.46043328450975       11.08940710069106       -1.25968876365659
C           25.60292698740840       10.44110472645606       -0.78660852834003
C           25.50851821416800        9.23086598897156       -0.13285031421645
C           24.28235490812427        8.63447572001648        0.06831044447001
C           23.11015339057845        9.24227203893810       -0.38601144065544
C           21.82599025722280        8.65548739514987       -0.19721292545828
C           20.70729737437376        9.26414474044998       -0.65068165936325
C           20.74235849455929       10.51621750405223       -1.33782078727071
C           22.01109694652189       11.12224568632581       -1.53443853938942
C           23.19528711942768       10.48381803936769       -1.05890494725952
S           17.90125825739482        9.08857026919928       -0.87549406760422
O           13.87781057043461        8.28403101184974       -0.97722346528947
C           11.65250333270582        5.50341031152940        0.18539760733890
C           10.34574217175205        5.08626230716854        0.16886383490976
O            7.55882477387186        4.20839468068409        0.03608120287354
S            3.60721670324604        3.12410770920693       -0.25667383664228
C            0.90879038541074        1.40932203934365       -0.02929297763152
C            0.86129413324589        2.70296603738984       -0.63290122366946
C           -0.27982552239392        3.22667169606884       -1.13093374681806
C           -1.50553921739098        2.50207385124339       -1.07666168140536
C           -2.70011763078765        3.01620430677942       -1.58525887935791
C           -1.50799963502692        1.21615332266108       -0.48633095801195
C           -0.29996334968802        0.66888341050523        0.03897416968591
H           -4.77915951969236        2.69986866910856       -1.91494493684103
H           -4.79654880597731        0.46982164576534       -0.89406771946885
H           -3.61200823545640       -1.38050641233764        0.22945737611081
H           -1.55210133710348       -2.31934665236915        1.12975345972258
H            0.85294266044589       -2.12266557150254        1.58569076634917
H            2.93128280269029       -0.87158036455769        1.47389118873922
H            4.71487853693058        0.14223669677613        1.41124684766547
H            6.67180352576228        1.78569624854636        1.03985731037248
H            8.96319382315482        7.67563554630960       -1.48778281112859
H           11.32037470309714        8.42581412710106       -1.45997671731256
H           14.91210221704887       10.64038629345588       -2.10270130970470
H           16.99055440094289       12.07865604139862       -2.63830317404215
H           18.85464394037808       12.90291394089911       -2.85282186816030
H           21.03234046827828       13.92600880283119       -3.17574996466013
H           23.47113027995382       13.89526686938955       -2.90131652939088
H           25.48913803939086       12.79873357778910       -2.08879969581533
H           26.56467523443393       10.89928934292937       -0.93918462330575
H           26.40228274265845        8.74621768427937        0.22419563034583
H           24.21719158087792        7.68967581395169        0.57945918775188
H           21.76054492528565        7.71176648040627        0.31569523663809
H           19.75051683127194        8.78681683423964       -0.48894797446748
H           12.41536968659675        4.90180183119183        0.64822434152757
H           10.06006072558127        4.14999475229670        0.61691660625350
H            1.77184485129437        3.28531233505180       -0.69331536668108
H           -0.27844068562329        4.20506263924165       -1.57898741696157
H           -2.69900557027739        3.99401745560490       -2.03471962845049
