15
 energy: -2.976319419836 gnorm: 0.000473101229 xtb: 6.5.0 (97a52f5)
C            3.21958397936599       -0.30782187933733        0.00990299726972
C            2.68929380760475        0.93391660960183        0.00701581112584
C            1.26116632890554        0.92961377722699        0.00553972036163
S            0.00042424502897        2.17210934206910       -0.00009351842180
C           -1.26069775272395        0.92998250005460        0.00160014217690
C           -2.68882503151289        0.93472708867810       -0.00067891575927
C           -3.21950181290609       -0.30684480189667        0.00214745451277
S           -1.99240380579851       -1.53959803749745        0.00738197251679
C           -0.71744789232467       -0.33303368325725        0.00592744191345
C            0.71752646411252       -0.33322990687035        0.00795120716692
S            1.99210288578943       -1.54020006674487        0.01197418208012
H            4.27013172794057       -0.52854685097855        0.01062397308042
H            3.26916935654025        1.84335663915238        0.00539642431029
H           -3.26842532462998        1.84433846527791       -0.00387142536859
H           -4.27010717539196       -0.52725919547847        0.00162253303486
