53
 energy: -11.520246780887 gnorm: 0.000300520799 xtb: 6.5.0 (97a52f5)
C            1.40421529899725       -0.84753974577756        0.50860461500877
C            1.05218679803730        0.48765107876242        0.53632131555019
C           -0.26193673517323        0.85975978048524        0.36625709135199
C           -1.25616467758074       -0.10100328684413        0.16296187233037
C           -2.67621540803488        0.29421303172754       -0.02400602469857
C           -3.07133493131744        1.02870636674868       -1.16965430065783
C           -2.13205233226630        1.40381058308425       -2.16266810814988
C           -2.50649654709863        2.11968191109154       -3.25636129322196
C           -3.84291976865879        2.50358207396791       -3.42485920552846
C           -4.77864657663143        2.15130477843004       -2.50307917998409
C           -4.43540997121843        1.39423323037491       -1.35541255102330
C           -5.41561253308088        1.01460526646816       -0.40317000996195
C           -6.84282435393738        1.36616305315038       -0.61271783337398
C           -7.55531028929014        0.85468954457149       -1.70180336118022
C           -8.87917555316014        1.16665812767844       -1.88898759051547
C           -9.55267571667412        2.00293285689600       -0.99838466890850
C          -10.98088239714699        2.33190189260215       -1.19739387615740
C          -11.48327228460555        3.59263461464717       -0.91312118124946
C          -12.81813922074041        3.82608059874642       -1.12018507100461
C          -13.60661942559570        2.80584594301607       -1.59979466239245
N          -13.16827741968148        1.59095261818847       -1.88262056113726
C          -11.88080745368659        1.38571523311643       -1.67688892027425
C           -8.84284277545591        2.51741136244345        0.08676792184255
C           -7.51855109786509        2.20763328787058        0.27650240287565
C           -5.01846052190713        0.28290202368390        0.74525933891254
C           -5.96267147934855       -0.13315802709601        1.71676137899078
C           -5.58192845041377       -0.82488399068995        2.82397651413107
C           -4.23381049527906       -1.14549506226955        3.02689539640149
C           -3.29747601116978       -0.78036076276512        2.11103111927100
C           -3.65198558317814       -0.06952601190938        0.93711080865065
C           -0.87898984518964       -1.44647727555898        0.13858259148350
C            0.43651367700347       -1.81250650644825        0.30991394835443
H            2.43397437962725       -1.13646865267624        0.64194579863837
H            1.80810639049902        1.23976267450318        0.69294753674961
H           -0.54146661163762        1.89896775221395        0.39444678840097
H           -1.10457239503931        1.10923755779714       -2.04248661033708
H           -1.77467296966077        2.39658286585439       -3.99755659274893
H           -4.12738983588765        3.07751228351205       -4.29157013166888
H           -5.80171912894282        2.45435359038550       -2.63781508915644
H           -7.04941254202751        0.19985154622816       -2.39039231897319
H           -9.40835940050950        0.77319195274590       -2.73950985926982
H          -10.83139147670719        4.36941600568303       -0.55212784306684
H          -13.24307838570947        4.79432986447158       -0.91209912496960
H          -14.65842708367450        2.98410855666727       -1.76467331169508
H          -11.51707999814689        0.39358070212917       -1.88848232743176
H           -9.35161227386011        3.15374238756380        0.78995096554800
H           -6.98077203260735        2.61425174362415        1.11574359087749
H           -7.00121343117411        0.10142286956808        1.56522656554986
H           -6.31745511667773       -1.12785525799282        3.55120578510117
H           -3.94173637056525       -1.68584346625083        3.91247310539292
H           -2.26363837594024       -1.02751011878668        2.27517126306011
H           -1.63543808554918       -2.19500131753349       -0.02410326603991
H            0.71219882554246       -2.85421212809741        0.28723716030288
