49
 energy: -10.734502401168 gnorm: 0.000747559210 xtb: 6.5.0 (97a52f5)
C            0.75681475680060        1.16644671600913       -0.11015128216567
C            1.48043322437365        0.01045284206155        0.06474964287401
C            0.79512804564081       -1.17086738151605        0.12288690604819
C           -0.59749327081076       -1.17744386735818        0.01285485279752
C           -1.33054500852179       -2.46246665026270        0.06623047054505
C           -1.11070836603141       -3.38864220116773        1.11983365755150
C           -0.27641122568401       -3.07596815724653        2.22194232666861
C           -0.04886337204964       -3.97319361719619        3.21832073527804
C           -0.64488698585214       -5.23878404918939        3.17720931723831
C           -1.47592941765114       -5.56997829347462        2.15324551633967
C           -1.75757875747954       -4.65800137523020        1.10605264930616
C           -2.65328887206069       -4.99770974569082        0.06028809015673
C           -3.34311178562651       -6.31273309251339        0.06058836029377
C           -4.25644163637022       -6.64555347952276        1.09386956635016
C           -4.89802088242723       -7.84211544071985        1.10942218220723
C           -4.67470229789870       -8.79603257669875        0.08819671663574
C           -5.32642512302925      -10.04764817585651        0.07333382782328
C           -5.09073704434661      -10.94183155746740       -0.92838336827235
C           -4.19615842378475      -10.63242675669511       -1.96054513122207
C           -3.54910152203069       -9.43411607153075       -1.97733860288294
C           -3.76930820655635       -8.48217726255151       -0.95436584615543
C           -3.11705182388086       -7.23450986365720       -0.94191890460312
C           -2.90204177852187       -4.05740424205137       -0.97127118558924
C           -3.80725146084086       -4.34067926903736       -2.02416191768819
C           -4.04659063589100       -3.44030323415307       -3.01517665692419
C           -3.40249614215932       -2.19748300135632       -3.00867360926827
C           -2.53660417974825       -1.88347520411533       -2.00874860640028
C           -2.25261077097835       -2.79059769768723       -0.96022014091300
N           -1.29750714294991       -0.04695275611654       -0.17493927828888
C           -0.60833114486670        1.07854409050857       -0.22527494817030
H            1.25280284535690        2.12187102459165       -0.16152621938843
H            2.55466716557106        0.03453572094534        0.14917070188610
H            1.32052738735573       -2.10382572848294        0.23321460292453
H            0.16561460491452       -2.09743210722113        2.27807671097373
H            0.59141324861574       -3.71135981094795        4.04482977900817
H           -0.44825739074054       -5.94800972222301        3.96453106402016
H           -1.93067288873396       -6.54431077195245        2.12857631557503
H           -4.44019226219540       -5.92039923072673        1.86795919187352
H           -5.58961622682803       -8.07820725345506        1.89962377015044
H           -6.01392868336043      -10.28633305270614        0.86642347501789
H           -5.59499887976677      -11.89433335522988       -0.92888822282207
H           -4.02091499808811      -11.34982503087823       -2.74556434887106
H           -2.86159633990290       -9.19648126733462       -2.77066306160750
H           -2.42219146793062       -6.99630763465722       -1.72669042127335
H           -4.31583344588811       -5.28818999421244       -2.03002193145935
H           -4.73783252022613       -3.67939499114330       -3.80673616344081
H           -3.60341896326733       -1.48634261365269       -3.79316025382630
H           -2.06765708745866       -0.91741293278771       -1.98986637726799
H           -1.18223284619123        1.98065012355841       -0.36909395104338
