121
 energy: -26.696865907748 gnorm: 0.000178512383 xtb: 6.5.0 (97a52f5)
C            3.61381060646104        1.92166099446105       -0.20183291098632
C            2.95677232934674        1.95170340672911       -1.41499430782924
C            1.60731292556658        1.68356337625219       -1.47281771113866
C            0.88366704213373        1.38414795289232       -0.32151380749291
C           -0.55691165316907        1.09681078579394       -0.43852471210956
C           -1.38366324585469        1.09298263939692        0.66552415510161
C           -2.72310508791150        0.81117878150034        0.49809712737989
C           -3.66217435016806        0.77060940702657        1.62840405498884
C           -4.94703005891491        0.28449293475950        1.39721001864734
C           -5.87225453484038        0.21687688014371        2.40507007344053
C           -5.55673988035057        0.64773223161795        3.69273693996282
N           -6.55263239344875        0.53563734713661        4.73298976845763
C           -7.11938966973898       -0.75398809082493        4.96556485895224
C           -6.32663641625320       -1.89474520837746        4.86793412600391
C           -6.86647298548461       -3.14716732983940        5.04561086737667
C           -8.21314121005584       -3.28226790862380        5.31225120132582
C           -9.00919261868832       -2.15954794367274        5.40358536007913
C           -8.48124933342282       -0.89024187825733        5.24822955921202
C           -9.39130648122073        0.33955688891594        5.29328851687139
C           -8.58602854979597        1.61397402913107        5.58550823463069
C           -9.22763578615411        2.75067495081567        6.04529718305756
C           -8.54596089192970        3.93910457201771        6.20732854715313
C           -7.20681386109659        4.01049401777312        5.88637398141599
C           -6.55569299203138        2.89668851099851        5.41043601871561
C           -7.22346184647923        1.68426277706897        5.26125928640510
C          -10.03535324986743        0.49046976363828        3.91164872359744
C           -9.30484872948712        1.03237870757509        2.86868783545932
C           -9.81847699717457        1.11066829559776        1.59205006268540
C          -11.08255198395368        0.62451014450213        1.33655307853377
C          -11.82172341387613        0.07411527449848        2.35720956671413
C          -11.32251299711845        0.00728493485444        3.65654758082385
N          -12.10066611916270       -0.56318463946912        4.70644284582701
C          -13.20987644379127       -1.43111842378645        4.38346386641941
C          -14.40615949687854       -0.91839484580501        3.88294206327869
C          -15.39981683013210       -1.76238624456421        3.45416058110652
C          -15.24940405871676       -3.14718599754042        3.52253108582714
C          -16.30461835531868       -4.01197970302190        2.97316329224585
C          -16.37392206701823       -5.35225123030533        3.29017457790804
C          -17.35449811283724       -6.12894207461496        2.71123588993407
C          -17.45864819119656       -7.57045895604116        2.99945478886198
C          -18.18389964303305       -8.38402026417124        2.13303158858506
C          -18.30035553165240       -9.73735855711618        2.35998823221302
C          -17.69705133951191      -10.30585106038690        3.46340730990965
C          -16.98159929080140       -9.51487569373804        4.33982390782600
C          -16.86298938865880       -8.16086196413713        4.11412750608305
N          -18.21609877511958       -5.59728416188894        1.84722341218742
C          -18.08515484875869       -4.29443863909693        1.60342337457459
C          -19.02525652317464       -3.70630903972339        0.63790360738112
C          -18.94130559905289       -2.36018432675198        0.29632401833256
C          -19.81215564071842       -1.81174092894236       -0.61880612045983
C          -20.78145478186591       -2.59927380092931       -1.20817798319390
C          -20.87768644491623       -3.93712231893333       -0.87925253148286
C          -20.00721208632719       -4.48650713087869        0.03579875456981
N          -17.18104944761587       -3.47095659628381        2.12937345386746
C          -14.06398065119310       -3.65683377508735        4.05770161091216
C          -13.06615179634146       -2.81477912841673        4.48064206607594
C          -11.72209091453382       -0.35430996683390        6.06406047645326
C          -12.62188008503729       -0.63355961571345        7.08882886642651
C          -12.27042709364991       -0.45638976853221        8.40635919835564
C          -11.00688540233919       -0.00417421705710        8.72434138544490
C          -10.10237816091001        0.27053500645322        7.71898842802313
C          -10.44322878697491        0.11544933819509        6.38658465237387
C           -4.26852080539592        1.12426097760595        3.93545946434618
C           -3.34046493314726        1.18815064042783        2.92302672865689
N           -3.20960700207050        0.54669681409572       -0.71319950852208
C           -2.34695897224479        0.58207081150739       -1.72536431285029
C           -2.89297909039171        0.29583728602120       -3.06028021875986
C           -2.06781418483259        0.28188495903588       -4.18017472087221
C           -2.58319161736170        0.01191870727667       -5.42863931611106
C           -3.93117762681635       -0.24830564566672       -5.57916793089330
C           -4.76314278612961       -0.23801572436020       -4.47708229088065
C           -4.24872763539984        0.03151971680712       -3.22843168009769
N           -1.04444753237874        0.84669652176483       -1.65192318884192
C            1.56593059500537        1.35104807250786        0.89473838037534
C            2.91635742563521        1.61912994648001        0.95042852628472
H            4.67019748992271        2.13008534881784       -0.15485056717929
H            3.49933428582505        2.18310350769292       -2.31701363387739
H            1.08815077898594        1.70027128480327       -2.41527010452869
H           -0.99085167748155        1.30945173041017        1.63925403032921
H           -5.20021542659014       -0.04390540531474        0.40441344754273
H           -6.85491234893058       -0.17740553793433        2.21550418498355
H           -5.27942885770475       -1.77926526893932        4.64958927312620
H           -6.24041677573819       -4.02106159468896        4.96939222542957
H           -8.64391865129934       -4.26172950288305        5.44051057973634
H          -10.06505437615859       -2.26100007964510        5.57753852064609
H          -10.28120697823467        2.70201829624162        6.26047801277571
H           -9.06221119298558        4.81249301193556        6.57075332874705
H           -6.67352552651194        4.94009061506303        6.00073654309464
H           -5.51760128897072        2.95910467941980        5.14148681125217
H           -8.30579528989600        1.37507332886542        3.06553559820527
H           -9.22942954871823        1.53697939338457        0.79659191020274
H          -11.48823568828172        0.67170463210191        0.33917186533419
H          -12.80175549264588       -0.31670074258168        2.15358072802538
H          -14.52712687153458        0.14901103081785        3.81928151030589
H          -16.30967389076695       -1.36534231237238        3.03884947118562
H          -15.66765459520445       -5.78663653808394        3.97037523611708
H          -18.65201962375935       -7.93239156011102        1.27575180087212
H          -18.86217417332881      -10.35207125188748        1.67587036561781
H          -17.78696434510717      -11.36490563682363        3.64213553208453
H          -16.51627716050238       -9.95802673268365        5.20518447765325
H          -16.32133274908925       -7.55151488783893        4.81538632509918
H          -18.17958790811945       -1.75687447770012        0.75837710854973
H          -19.73557621393090       -0.76801920023619       -0.87626730807149
H          -21.46175709938013       -2.17017303021592       -1.92552119605182
H          -21.63316876465798       -4.55226573858646       -1.34001583695709
H          -20.07137652285015       -5.52824269345975        0.29715805457959
H          -13.91230696531127       -4.72046514442914        4.10107102786669
H          -12.14232750909125       -3.21223406403961        4.86233740997320
H          -13.60418974970895       -0.98998074946242        6.83337956830022
H          -12.97888375184594       -0.67486462602294        9.18858533138899
H          -10.72388382979503        0.12784981514941        9.75577139839544
H           -9.10776516509232        0.60028410584831        7.96558114261525
H           -4.00046280643453        1.41113962323433        4.93710068227025
H           -2.35691006400327        1.56848167149634        3.13188825392581
H           -1.01906139175694        0.48473481003214       -4.05159108462532
H           -1.93378497189239        0.00337414249411       -6.28864852503637
H           -4.33388798240910       -0.45954094017033       -6.55627609387515
H           -5.81518401331929       -0.44098237832435       -4.59361470005822
H           -4.88816694639711        0.04220880887769       -2.36323127446278
H            1.03917997589898        1.09475600654001        1.79641761677508
H            3.43139604358980        1.58871864748232        1.89675353684319
