103
 energy: -20.073694182337 gnorm: 0.000928224869 xtb: 6.5.0 (97a52f5)
C            4.04206107192235       -5.38772027871938        2.24010363286819
C            5.44822386703492       -4.85720099929412        1.90518085495142
C            5.98655045076630       -4.09778157352185        3.13323751298970
C            6.39225958650638       -6.03833009435375        1.61351931995754
C            5.36689601754814       -3.95262609781599        0.66576544068975
C            4.90964044910890       -4.47387459503714       -0.53789099092080
C            4.82042039201860       -3.69367867765982       -1.66796844375361
C            5.18711285411595       -2.35192973158178       -1.64182366808306
C            5.12152711805990       -1.48337707900921       -2.81463363363528
N            5.51889520057610       -0.21961093723050       -2.77946555555392
C            5.32520788173190        0.27977066255593       -4.02051856520891
C            5.58897224194654        1.60952748719419       -4.50231141676987
C            6.10433115003434        2.59340814739448       -3.65549610881944
C            6.33375128960472        3.85951922705816       -4.11714948590442
C            6.05593746799867        4.19945880705480       -5.44832827472821
C            6.28964226940576        5.57165704856748       -5.94027555385408
C            6.61018726484623        5.83617050228625       -7.30435398956884
C            6.81297346314529        7.10697634311934       -7.76868330262880
C            6.70494709452848        8.16345940826085       -6.89573745738751
C            6.76739419988550        9.50412690067038       -6.66417740836180
C            6.55323120211017       10.08653832916804       -5.43785536979291
C            6.23419681175792        9.60941602716588       -4.12670854163273
C            5.99686999229611        8.41491974923113       -3.46779255352474
C            5.97773799509322        7.10063537765727       -3.88221910136560
C            6.20854553674522        6.64171999783596       -5.12372421042683
C            5.54319579885452        3.22177432086176       -6.28746461273530
C            5.30432603344730        1.91566215977188       -5.85194399390964
C            4.76809398446089        0.88006915708971       -6.74176157525449
C            4.50754166629583        1.13132609800944       -8.09048821449597
C            3.99407196979984        0.16613444492005       -8.94211183090392
C            3.73986655880319        0.48456406795508      -10.36466580856548
C            3.93260785705725       -0.51880525998772      -11.36528857015089
C            3.75857057336972       -0.45442799173093      -12.72871360317576
C            3.34769970855618        0.62241540245563      -13.48659940743208
C            3.05038420263014        1.83023294360106      -12.97121406619371
C            2.65104940284620        3.06078979838186      -13.29004198629467
C            2.46398280123140        4.07893420346007      -12.32745215010009
C            2.63940763207320        4.01580854990078      -10.96290338869978
C            3.04201340754545        2.93395660627029      -10.20946143626744
C            3.34655429816247        1.72383937969043      -10.71549629302185
C            3.72219019478826       -1.10551215756202       -8.41854981952114
C            3.97360047356495       -1.38798572107297       -7.10569140808628
C            4.50170789570020       -0.41864840794691       -6.24542191319659
C            4.79265102964701       -0.69683389023126       -4.86566101916277
N            4.65969567075689       -1.83817461546044       -4.09487411491616
C            4.11666701547755       -3.09824030237515       -4.54204785185001
C            4.93910432486676       -4.06213073772899       -5.10363682072148
C            4.41170957993710       -5.25387000211985       -5.54722870500737
C            3.05187516466322       -5.52171255652441       -5.44818253211429
C            2.50258438384273       -6.86186446462253       -5.96055312300640
C            2.81400219631204       -6.99806102823564       -7.46252073775816
C            3.16785666019767       -8.01400713041652       -5.18545666522820
C            0.97702527860300       -6.96516707146281       -5.76961675069866
C            2.23630261565311       -4.54761697087969       -4.88357716040818
C            2.75864511158432       -3.35410754593803       -4.43771683318412
C            5.64540819515439       -1.82913929604706       -0.43731961254936
C            5.73312266960221       -2.61206750115622        0.69211726201121
H            4.06440742490343       -6.01875091674687        3.12829199634861
H            3.63659599474564       -5.98012422568411        1.42093782728437
H            3.35487809361474       -4.56332041795548        2.42885884800058
H            6.03978402346791       -4.75489843727504        4.00107324957116
H            5.33785304697610       -3.26172842417228        3.39324504295920
H            6.98977308262002       -3.71443630107480        2.94876170913339
H            6.48444241918288       -6.68785896083011        2.48370626178292
H            7.38783215362432       -5.67990653494277        1.35306043078482
H            6.02689459436479       -6.64308831130685        0.78461781626355
H            4.61907242081278       -5.50899167915284       -0.58743943213993
H            4.46527433731738       -4.12679239400638       -2.58294879048344
H            6.31235965686153        2.33490766650468       -2.63175028030920
H            6.73133667403004        4.61154731961887       -3.45825827907291
H            6.71152234082801        5.00455610648491       -7.97999872068227
H            7.05927836049799        7.29142743325264       -8.79977493696593
H            7.00239539480125       10.13307055940473       -7.50726340875312
H            6.64963603120453       11.16491288471591       -5.47004302065233
H            6.15510131671897       10.44616990599700       -3.43963224440350
H            5.77894818415882        8.51296377648885       -2.41323088050885
H            7.40690696208601       -1.81081123991607       -3.74853622918658
H            5.29288845617087        3.49879049106589       -7.29293281180559
H            4.71712479780215        2.09988688153584       -8.50074314912925
H            4.28418088893539       -1.46313280936538      -10.98217784997846
H            3.96925200882454       -1.35062249518713      -13.29133083967568
H           -0.39159209307927       -7.03566663600344       -8.79370095124121
H            2.46652402633353        3.28148906192566      -14.32795560183836
H            2.13957248448350        5.03094517481323      -12.72024188388949
H            2.44010524796201        4.91420297552576      -10.39990647060435
H            8.42229451348094        8.72788374940560      -10.81095112550999
H            3.29550746924397       -1.85850884324284       -9.05814466245067
H            3.76301978428766       -2.36786877105001       -6.72038856962304
H            5.99261941852527       -3.85985000431768       -5.18867599307221
H            5.06501891017592       -5.99104018850049       -5.98066355905368
H            3.88732043815215       -6.98847632691734       -7.64748980770120
H            2.37069783666285       -6.17561398007865       -8.02343099348768
H            2.41628499681027       -7.93138443102838       -7.86038749173572
H            4.24729151959424       -8.01841169414037       -5.33091912539285
H            2.78348648005124       -8.97896238399444       -5.51519667795191
H            2.97460299067674       -7.92084887032927       -4.11700691590172
H            0.45929801562679       -6.17513978807293       -6.31291805366874
H            0.70765242342737       -6.89543783352587       -4.71604913187130
H            0.60477310937868       -7.91949179302352       -6.14173050513780
H            1.17883455759200       -4.71968666065075       -4.79098829285744
H            2.12256990868545       -2.60152147495562       -4.00503382165493
H            5.93308217589139       -0.79247325012794       -0.40560579085217
H            6.09203985854842       -2.17124627878497        1.60498471693350
