95
 energy: -21.219336496520 gnorm: 0.000659255444 xtb: 6.5.0 (97a52f5)
C           -0.69099888593449        1.64214719398743        0.13416553134976
C            0.17468599208016        0.75178407635116        0.72038822044662
C           -0.18449640587108       -0.56919089889383        0.74664535175215
C           -1.39623741223528       -0.96792828804618        0.19154968184214
C           -1.78702937190208       -2.39374752464277        0.20650752113455
C           -1.37732251301750       -3.21500661003317        1.24436895089475
C           -1.71448493253756       -4.55596957010151        1.25025514592982
C           -1.27186743879193       -5.46669684125251        2.32701838043104
C           -1.38816931484769       -5.09557865278196        3.67208523928252
C           -0.98638788056221       -5.93505772453219        4.68757665185804
C           -0.44695591330749       -7.17252174944401        4.36255268096646
C           -0.31686274564296       -7.54841238303743        3.02299065201245
C           -0.72822798662071       -6.71316961829668        2.01173700243052
C            0.33057152387335       -8.92868311413904        2.95069851649611
C           -0.54298637619297       -9.94892900393362        2.22304676929775
C           -1.82864008643612      -10.37013140495846        2.48845745004735
C           -2.40403407656593      -11.31674519657936        1.66125506185338
C           -1.70294757751887      -11.83421722911025        0.58365993997123
C           -0.41556502630535      -11.41637997991740        0.31261600665947
C            0.16772085630508      -10.46696966091348        1.13885089658655
C            1.50015550227560       -9.84356981282949        1.08797158121401
C            2.54931052760553      -10.03094331819121        0.20010024803225
C            3.70965395793659       -9.30479841862525        0.37797839703599
C            3.82822198269747       -8.40281142118917        1.42339513931268
C            2.78613233640316       -8.21083831129774        2.31145515509316
C            1.62481372902579       -8.93362676623686        2.13949549157153
C            0.55389244995711       -9.28402941051421        4.41822471168182
C            1.11338548779992      -10.40756701512023        4.97869320786629
C            1.19133459026374      -10.51646501337940        6.36809836410021
C            1.81603588084905      -11.70697746673018        6.98567387062707
C            3.07924523476752      -12.13013851109194        6.61536571895178
C            3.65341024150323      -13.23606254993124        7.22007760044173
C            5.01945571236362      -13.65970774227095        6.84584468679628
C            5.95900336234647      -12.71515703807673        6.44508701945938
C            7.22778156514084      -13.11264188570470        6.11822687220479
C            7.52451076436723      -14.45072999850347        6.20340290877622
C            6.54123028291403      -15.31851452741226        6.61029361064071
N            5.30965190391632      -14.96192354724872        6.93010479030926
N            3.01388982017697      -13.95685213885098        8.14836747314916
C            1.78287558740532      -13.56881488414851        8.50173823905013
C            1.07765133713356      -14.37916083645239        9.51753300828311
C           -0.30834680652863      -14.49296286145589        9.48244230391078
C           -0.95273309861543      -15.25483263431937       10.41999519300926
C           -0.18974987922567      -15.88724632479090       11.37070684148996
C            1.17354363233784      -15.72788378726301       11.33299865226359
N            1.82015427416563      -14.99874570778992       10.44058757538173
C            1.17209742267403      -12.45056869058599        7.95737292075593
C            0.69016065516967       -9.47836198264549        7.16266267421567
C            0.13903819282849       -8.34676693477795        6.60311342449580
C            0.07334067712752       -8.24501442938635        5.21979725700974
C           -2.47921292409308       -5.00688721992440        0.19016715863569
C           -2.88593386166002       -4.13201912118741       -0.80382942260600
C           -3.72498940005628       -4.61826673782081       -1.91970055408236
C           -4.62538221594496       -5.65897912086410       -1.71561156524698
C           -5.40298380970976       -6.09979016618958       -2.75272418470529
C           -5.26058824864663       -5.48303519830035       -3.97139535293783
C           -4.35386519035877       -4.45854558566696       -4.08852951662675
N           -3.59107368755075       -4.01465009503997       -3.10498059608621
N           -2.54033243859229       -2.83941281624348       -0.80566063178581
N           -2.23578786013431       -0.10129225042558       -0.38397269305004
C           -1.86488311038843        1.16696492380785       -0.39648383647228
H           -0.45151349166764        2.69183225020357        0.08756664167895
H            1.11023207641231        1.08196921453001        1.14164389556056
H            0.47864740748660       -1.30231154726429        1.17126449112984
H           -0.79388676171164       -2.81469253234588        2.05274632484979
H           -1.81492434830286       -4.13611678743753        3.90774447732973
H           -1.08115607122107       -5.64619799963508        5.71933605228498
H           -0.61341950304332       -7.01406932848719        0.98668050006180
H           -2.36227959768079       -9.96030774076591        3.32792175318352
H           -3.40816000568509      -11.65511493193092        1.85725216803539
H           -2.16785393870362      -12.57122558656053       -0.05029142522677
H            0.13507910173955      -11.81252698291978       -0.52220951873498
H            2.44886008254496      -10.73240857551154       -0.60918454165172
H            4.53234469682518       -9.44080743798396       -0.30457978633753
H            4.74152813087535       -7.84419470564768        1.54576526444619
H            2.86511437678340       -7.51297447047545        3.12642173010693
H            1.48062642339127      -11.19750141346118        4.34966099873813
H            3.61001758980946      -11.59349382636289        5.85070163579513
H            5.69509088139202      -11.67245196014166        6.41986978743950
H            7.97331881357092      -12.39713984644884        5.81170234669367
H            8.51079882499215      -14.81129154042835        5.96134467890487
H            6.76419715037265      -16.37180574119418        6.68414889730090
H           -0.86696511870386      -14.00406780842356        8.70367651263325
H           -2.02531457694904      -15.36050142298672       10.40934551844640
H           -0.65117538037569      -16.49889281153537       12.12855037416839
H            1.78321674325488      -16.22334757345790       12.07287822676177
H            0.19522432464940      -12.15062528122752        8.28910634060324
H            0.75839579390049       -9.56948383390312        8.23287975238259
H           -0.23617330919443       -7.54769844990589        7.21764342453969
H           -2.75209089394755       -6.04489584175884        0.14175490431018
H           -4.72702179119255       -6.09657917117349       -0.73801080128556
H           -6.10920025776964       -6.90250059153782       -2.61618375153098
H           -5.85117208188517       -5.79407236310189       -4.81746305270167
H           -4.23755132402242       -3.96356206559001       -5.04038962841261
H           -2.55092297367768        1.85708023989156       -0.86306358486658
