119
 energy: -20.508442861478 gnorm: 0.003717885200 xtb: 6.5.0 (97a52f5)
C            0.91945551313525        1.49810679766123       -0.00192975919821
C            0.08905982639341        2.59913976240638       -0.05200360812131
C           -1.27558431468314        2.43880591476132        0.03948142391370
C           -1.83785511469001        1.17313328014146        0.17892874670187
C           -3.30464240655350        1.00812265419192        0.28454581051745
C           -4.16131207653520        1.76812922213182       -0.50287436344175
C           -5.54336756915644        1.65544384031476       -0.39647039305639
C           -6.42679889170315        2.52304252142835       -1.20832094561186
C           -6.08909690196748        2.85962384177180       -2.51758476553598
C           -6.88617758654221        3.70582955322427       -3.25765634750386
C           -8.03409315004395        4.23581681894233       -2.70511802533886
C           -8.38626582370904        3.90939984722839       -1.41226479413603
C           -7.59564792311626        3.05791635340470       -0.67297412208518
C           -6.06444632822471        0.75101693569641        0.52195578432329
C           -5.23463325402043       -0.02678262319167        1.32313806574162
C           -5.79854190959800       -0.94904866867858        2.33274191258489
C           -6.84789488244813       -1.81318575274468        2.01747791890975
C           -7.38193069387690       -2.64254738559984        2.97852737998258
C           -6.89274275421699       -2.62135529321781        4.23957053353117
C           -5.86735492881485       -1.79488908295917        4.58289512701912
C           -5.30858066691085       -0.95826958419051        3.63758016510634
C           -5.47786420626786       -1.85075015870308        5.96611525156208
C           -5.33368957801500       -0.62253502398990        6.59618839540908
C           -6.27508511895770        0.18014301380751        7.12028831373716
C           -7.59971896789915       -0.08863667933810        7.19839096577611
C           -8.28462770400230       -1.22895409099626        6.82813967222447
C           -9.54605910876542       -1.31118306416106        6.43552499944015
C          -10.38004878768356       -0.34478966429357        6.28861065969105
C           -2.47775880989108        0.73047060877839        5.01241096373900
C           -1.74931654826910        0.59623186563097        3.91224943936293
C           -0.98568544294901        1.59263403754943        3.50159198138994
C           -0.94575534545230        2.72346767117268        4.18761018749296
C           -1.67491406111837        2.85930981333190        5.28391312120697
C           -2.44025709553853        1.86477239835093        5.69782880727114
C           -4.55959000293011        2.78918763186900        3.11019791139734
C           -4.94917796853197        3.76601933962180        2.26720137646621
C           -3.94691871873877        4.56102420623981        1.51819140300045
C           -2.70081101278988        4.87090422685755        2.06622409115908
C           -1.82011560256268        5.60276443080400        1.35609239532857
C           -2.11198132194181        6.03032037420878        0.14184582598477
C           -3.30641278306942        5.74882391764173       -0.42161525001221
C           -4.21205700769991        5.02660478710034        0.26590305762897
C           -6.26072019191415        4.02007403764551        2.09580131501174
C           -7.19253674607953        6.78031763011582        0.32146327097529
C           -7.27425629977259        7.09736512896403        1.55916473618569
C           -6.76752965185581        8.13103573894659        2.13356470952599
C          -10.52239832554244        5.73746925917021        0.64894920920822
C          -10.94517349604280        5.97787749708573        1.83812367269067
C          -12.20986440181827        6.11262175600922        2.19642846379708
C          -12.78542328909753        6.34758422857944        3.36780876288931
C          -12.36142007255390        6.54006338070996        4.60592083609118
C          -11.15947324604172        6.61296112349991        5.16755723218811
C           -9.90178064438492        6.61386539990331        4.59797436219669
C           -8.96063183849589        6.12308033712236        5.35562299993624
C           -7.65221799696095        6.01660106766826        5.06339908548096
C           -6.70211346687549        5.28276056496678        5.77914381207365
C           -7.07365963237490        4.46049584334384        6.82027598147400
C           -6.19538836545134        3.76587980406122        7.49665002823723
C           -4.89606184868170        3.82976489239432        7.20445664544410
C           -4.45956451407136        4.58952827655551        6.23290622369754
C           -5.31822482437433        5.35222120693537        5.46922940984894
C           -4.83212087656796        6.15560250543536        4.45939128277414
C          -10.71971209607987        1.44042952943856       -0.21858981402768
C          -10.01798628165217        0.82961955234331        0.73610601016495
C           -9.52199388244783        1.34919824525191        1.93502569554153
C           -9.76634231727504        2.67482300916462        2.34635979021391
C           -9.25243349237723        3.13987927756618        3.52540920767845
C           -8.46866657686958        2.30739684923740        4.32302457338582
C           -8.23141952714344        1.02230499035368        3.92548471607143
C           -8.76377763950399        0.56144728793082        2.75922903698659
C           -3.85779117134701        0.11270033042955        1.19119637846915
C           -0.98567654068726        0.07247034225188        0.22654789378545
C            0.37997347586326        0.23522699431134        0.13794437091272
H            1.98769004096059        1.62453637961877       -0.06984664511870
H            0.50791818103701        3.58635504575732       -0.15923755593244
H           -1.92110588171737        3.29864796541535        0.03323510198028
H           -3.74388890646991        2.47940869568865       -1.19165124916101
H           -5.19615405873615        2.44496571273474       -2.95238889680552
H           -6.61122357350646        3.95676130653649       -4.26918127471285
H           -8.65352215008515        4.90400095675589       -3.28096381618441
H           -9.27214397488208        4.33607751311730       -0.97287279517820
H           -7.87646136548101        2.80665451219096        0.33421290966086
H           -7.12920999995015        0.67215229182072        0.63991844769193
H           -7.23885633413655       -1.81969691909150        1.01454227686389
H           -8.19601157168237       -3.30616818192489        2.73973643626095
H           -4.50547865853856       -0.30042157487337        3.91458788325027
H           -5.95113586663740        1.13809403444191        7.49112642812816
H           -5.47019945526848        1.95271497922367        5.21159299067541
H           -9.27420424339895       -2.61883555798252        9.17521381825570
H           -8.79648794361267       -4.02422484621462        5.78967503819100
H           -6.51262017924781       -2.91428839917071        8.39752909416979
H           -0.18171932972860       -5.85980970800814        6.71485330972296
H            0.89771989764670        4.23585497168723        2.29951432923011
H           -3.55632393839403        2.53131500104569        3.27011577882955
H           -2.44251575125438        4.52760789765021        3.05219867116023
H           -4.22204582965258       -0.94516945830272       -1.71256631701583
H           -3.47771752837443        5.09288613522658       -7.94814577692549
H           -3.53689403398616        6.10398708578644       -1.41213051925276
H           -9.64920959811303        8.45291981150114        2.48407243324087
H           -7.00936613747995        3.48596789480114        2.59980280327116
H          -13.03850471238404        3.81073572779445        0.65377120092748
H          -12.26791058992440        9.16355033033827        3.15733679630710
H           -8.53845225439317        6.61187469839095        8.10680552098880
H           -6.96468012551066        8.71899006160208        5.13666418539666
H           -5.52274961061201        6.97403750957934        7.94003411507422
H           -9.02111800657504        2.22361949372213        7.64162369828585
H          -10.40481576745134        0.12761118023291        9.18056244369147
H           -0.04711225519979        1.31864456588001        7.17157589968201
H           -0.40492234929874        5.84623258341819        4.15439560595420
H           -4.07687569041566        7.77473651216181        1.52467375616530
H           -5.45417576868266        6.71679839916485        3.82893010832339
H          -10.96895808993296        2.45871514315991       -0.19832347809439
H          -10.35673267466885        3.32579010507300        1.72711431691397
H           -9.43805405630236        4.15553883138701        3.83074871520838
H           -8.04245208018101        2.68396860546153        5.23786228704820
H           -7.62972717750129        0.36182453835980        4.52464418691460
H           -3.20936743665724       -0.46922960535177        1.82012466879158
H           -1.40732458938312       -0.91272163276964        0.32759031180880
H            1.02776427278299       -0.62530533857623        0.17748349069381
