42
 energy: -8.894687989611 gnorm: 0.000544734210 xtb: 6.5.0 (97a52f5)
C            1.36552895929874       -0.28374789915598        0.23887278637349
C            0.95545236028218        0.94761692185306       -0.23140965590585
C           -0.38694894828472        1.21475511655842       -0.39186671729267
C           -1.34696934444943        0.25274369528040       -0.08172591753230
C           -2.79114495396881        0.53981702936548       -0.24299921909251
C           -3.27227439378014        1.19001554193238       -1.37849693060902
C           -4.61423673386691        1.45414443080565       -1.52594464785948
C           -5.52938782004202        1.08348053859067       -0.54121336785421
C           -6.97309176294094        1.37310610088093       -0.69194805763447
C           -7.62353041926520        1.17698906233513       -1.90977429025010
C           -8.96726148797105        1.43961349679863       -2.04338203664185
C           -9.71449963071402        1.91369451491466       -0.96613193888412
C          -11.16161182448818        2.19725127021318       -1.10583768490379
C          -12.00303225213885        1.31218072214080       -1.77810395281676
C          -13.35099447505680        1.57361385206847       -1.89566849192689
C          -13.88457364826180        2.72268750391631       -1.34749278746102
C          -13.06617857959224        3.61198171307031       -0.68051904735383
C          -11.71824750859979        3.35272707970052       -0.55957658776209
C           -9.06370166756234        2.11283310022993        0.25026125816324
C           -7.72153693663946        1.84611982071236        0.38520455265927
C           -5.04705289657233        0.43484278321979        0.59494196087456
C           -3.70622545582564        0.16658333378890        0.73991831643344
C           -0.91399291369061       -0.98483891780820        0.39185837170360
C            0.42915451938608       -1.24930388627707        0.54929264534803
H            2.41579334285654       -0.49138383319732        0.36416939260178
H            1.68621688647576        1.70281412501830       -0.47119633262589
H           -0.70759541716339        2.17909835222638       -0.74670821954219
H           -2.57819926375722        1.47708379744503       -2.14957715118637
H           -4.96982234111907        1.96514024635759       -2.40406169409826
H           -7.06157434516522        0.80225450886487       -2.74788992759173
H           -9.45442724082454        1.28953546542417       -2.99146811409966
H          -11.58887293026048        0.41020499996841       -2.19474372870787
H          -13.99027592574679        0.87744744762998       -2.41386024876805
H          -14.93927909315493        2.92545009838121       -1.43888030467945
H          -13.48149720435489        4.51079960341875       -0.25459028493097
H          -11.07800395595484        4.05077060205860       -0.04807939719801
H           -9.62995438342215        2.46955082303874        1.09335974446700
H           -7.23151532075008        2.01276926112682        1.32899306677558
H           -5.74233712853113        0.13351069072371        1.35941057697749
H           -3.34801137239005       -0.32790109582398        1.62641524706774
H           -1.64415404947854       -1.74089835115127        0.62433200087207
H            0.74862755749692       -2.21180366664990        0.91441681489094
