33
 energy: -7.149970839556 gnorm: 0.000396375133 xtb: 6.5.0 (97a52f5)
C            1.39555930482419       -0.30348888686423        0.09218961177539
C            0.95826122253238        0.79846317213874       -0.61427167313793
C           -0.38749172531871        1.07876136833989       -0.70004085101952
C           -1.33362600638463        0.26086961138013       -0.07790595742111
C           -2.77556476722417        0.53175484092714       -0.18264847090044
C           -3.30137779542286        1.28385971356402       -1.21133469416793
C           -4.67147620003543        1.55002447369920       -1.33646656445316
C           -5.61034782094191        1.07808185440244       -0.44429118234704
C           -7.04250175307844        1.37816849952805       -0.59356277270639
C           -7.59070891092569        1.73904250094683       -1.82657677579304
C           -8.92897647442002        2.04180562277843       -1.94635306759473
C           -9.75444005444048        1.99363865811950       -0.84138862237847
C           -9.23753205146928        1.62975347432342        0.38484113474705
C           -7.90215021885504        1.31990799880037        0.50335808958603
C           -5.12635344421375        0.28547967958750        0.65691321395025
N           -5.84005551103786       -0.26226732053616        1.61913401208264
S           -4.82652676144329       -1.07691030566819        2.61769650257279
N           -3.42647356274655       -0.74098771702124        1.83345858473464
C           -3.70470852649313        0.00582593927647        0.78458038983042
C           -0.86377684749824       -0.83603277847811        0.64437593025249
C            0.48022560958428       -1.11996525374714        0.72366852860902
H            2.44901198455028       -0.52158732287141        0.15619498066823
H            1.67331271505573        1.44340130917382       -1.09837425803154
H           -0.71250564369773        1.95301127653591       -1.23554379469935
H           -2.63630480812779        1.66754181972538       -1.96421253403726
H           -4.99884491417930        2.16753113175087       -2.15372554422088
H           -6.96360901135600        1.75924456795077       -2.70011968451179
H           -9.33423672386258        2.31460351995692       -2.90705063926490
H          -10.80087783502394        2.23274699919424       -0.93742715140594
H           -9.88029487806669        1.58238547954020        1.24861465606931
H           -7.50592636764610        1.01515229793912        1.45418781020937
H           -1.57327656474034       -1.46058384752433        1.15463372977086
H            0.81788434209673       -1.97652237686888        1.28383706323449
