32
 energy: -6.718034768768 gnorm: 0.000172345119 xtb: 6.5.0 (97a52f5)
C            1.36230669976776       -0.29391453212112        0.12948862764971
C            0.93646182749813        0.99261954605920       -0.13363436494268
C           -0.40918871041636        1.26461175402433       -0.25362640318453
C           -1.35657447664281        0.25247845892761       -0.10908023336515
C           -2.80417602537680        0.54297416957149       -0.23300658610759
C           -3.29116383043437        1.32361329255677       -1.28005406851494
C           -4.63588298024260        1.58949960484274       -1.39598673449415
C           -5.54628045121515        1.09079895567610       -0.46575693366238
C           -6.99417907738428        1.38144413266512       -0.58581591957158
C           -7.64977728524180        1.25663018368349       -1.80952421194474
C           -8.99747760369488        1.52358505384727       -1.91730608231926
C           -9.71543827988794        1.92287130439600       -0.80786647285949
C           -9.08221598229347        2.05363142951657        0.41179727597457
C           -7.73535854814576        1.78456556724878        0.52370408910629
C           -5.05886181261126        0.31231897743641        0.58260212616304
C           -3.71505857798038        0.04141130690168        0.69510055486078
C           -0.90825649415049       -1.04014040159737        0.15745635110562
C            0.43822590726877       -1.30924350840394        0.27386708565486
H            2.41516479504391       -0.50548179156668        0.22233765923224
H            1.65764404480994        1.78623231945838       -0.24297200373607
H           -0.74306824655126        2.26932030289421       -0.44843025285724
H           -2.59911769491007        1.71048397306666       -2.00818063394744
H           -4.99836925323814        2.19859912310934       -2.20615072771510
H           -7.09100360611697        0.93510421830362       -2.67164975957256
H           -9.49243930115865        1.41809957362786       -2.86902319604861
H          -10.76934613538913        2.13215467309754       -0.89369252044136
H           -9.64165420079617        2.36837213481691        1.27772804072688
H           -7.23825959657998        1.89534348182299        1.47213188707707
H           -5.75238566602264       -0.08582370120745        1.30320326233868
H           -3.35109284011912       -0.55625456584355        1.51307393434799
H           -1.62947674963596       -1.83270673324608        0.26026847337543
H            0.77034015184794       -2.31451830356583        0.47634773767358
