51
 energy: -9.633205676800 gnorm: 0.000823953330 xtb: 6.5.0 (97a52f5)
C           -0.34179195276751       -3.30205025897628       -0.81588924680369
C           -0.35081215162759       -2.50699633333753       -1.94449379239268
C           -0.80906138493879       -1.20899457373554       -1.87420824322593
C           -1.26596422452910       -0.67927714735034       -0.66882773858069
C           -1.76200479892917        0.71236469377285       -0.58065799951837
C           -2.49178607050058        1.29674932964160       -1.61899685152436
C           -2.95634666637672        2.58611686962701       -1.47921758435602
C           -2.69243897530820        3.26303573127713       -0.33716989133421
C           -1.99808443906256        2.69880233113136        0.63814690779148
C           -1.54320975023530        1.46801206306701        0.53447176693664
C           -7.39929606400483       -2.35138343792113       -0.07424070146740
C           -8.30433590642362       -1.49424036632678        0.42718162308956
C           -8.42342093120709       -0.18921373622423        0.22523753179632
C           -7.57032776881872        0.74749814136114       -0.18998876042384
C           -6.25164540972976        0.93183935874887       -0.21106083193735
C           -5.20406024719469        0.45158941547951        0.49630242031989
C           -5.28818636419361       -0.42551377769072        1.51929930296227
C           -4.23952177226384       -0.89669890902216        2.37291569425465
C           -4.05152984121496       -2.22401866642069        2.74266026485136
C           -3.00928947880185       -2.54842721423258        3.58483101176437
C           -2.17299727041195       -1.55282563584478        4.05537384742760
C           -2.38687278702358       -0.23945985216563        3.67995801710106
C           -3.40430761372214        0.06519134524555        2.85524553965202
C           -4.20575250370786        2.81963376855352        5.10090648066475
C           -3.97563200881245        3.22729275181808        3.83829950377348
C           -4.91606284354033        2.97098683141648        2.85765636882279
C           -6.07574638173531        2.29948556070081        3.19619699511101
C           -6.26488594133410        1.90074622778107        4.50336329399564
C           -5.31399763585669        2.17646330281175        5.42601916730670
C           -1.24686949726270       -1.49650153037368        0.45871328460415
C           -0.79170517882757       -2.79423890173485        0.38583042425006
H            0.01603128791045       -4.31724077831869       -0.87283002777551
H            0.00305680223674       -2.90192039481183       -2.88291385078795
H           -0.80389847709006       -0.58711060634695       -2.75273738053314
H           -2.70598422674376        0.72968012186503       -2.50851143960051
H           -3.52876063135753        3.05790685424665       -2.26067464352387
H           -6.42098303297436        5.04333826514833        4.82827240507613
H           -3.76043719970627       -2.09331441268272       -0.62809984893211
H          -12.51195231617650       -8.14324287918028       -0.69880923553596
H          -15.64098716278998       -0.33581444364503        4.40051215784563
H           -4.22914640933740        0.83698532060140        0.25471161977477
H           -4.71903530943817       -2.97944558198694        2.36541703494724
H           -2.84895951697362       -3.57313741899832        3.87724620180952
H           -1.35744330712087       -1.79919716273559        4.71562797696221
H           -1.74608699385132        0.54735674322517        4.04154278641289
H           -3.05804275532096        3.73990731082774        3.60112349398437
H           -4.73602088037270        3.27172082066695        1.83858965785780
H           -6.81146207064893        2.06864939383571        2.44334217505121
H           -7.15489359703575        1.36909971558993        4.79648427722116
H           -1.61763325443431       -1.10688447430966        1.38951379746985
H           -0.79094708059443       -3.41386377593944        1.26780501184531
