91
 energy: -18.347978067088 gnorm: 0.000714376442 xtb: 6.5.0 (97a52f5)
C            4.45726062960184       -2.73057179989768        1.58498101418143
C            5.78602287344189       -1.96324073613246        1.45707530027761
C            6.41820278027515       -1.78526593942010        2.85008017559598
C            6.74905204272608       -2.79822188617799        0.59118587179543
C            5.51573987747313       -0.58230007813090        0.83981606310546
C            6.06588624700819       -0.18376679137016       -0.37289171155763
C            5.79952286933831        1.05878950312136       -0.90235138389069
C            4.96862651222520        1.95757439546648       -0.24060462385744
C            4.65836860957670        3.28783690699591       -0.75976673801265
N            4.00059283707132        4.18924332559061       -0.04572085673377
C            3.87515806829183        5.28350425383623       -0.82874253425744
C            3.23603062092479        6.53547774413541       -0.52190513520616
C            2.64437473500023        6.75238243212404        0.72448102102881
C            2.03901653148322        7.94408217645156        1.01158031251498
C            2.00327064143956        8.97318107448618        0.06108002335485
C            1.35532705923196       10.26807681648421        0.37008330112424
C            1.50959789145511       10.86598584175161        1.62010506519399
C            0.91226339111690       12.07529758994134        1.90267078076607
C            0.14912583131466       12.71120927368271        0.94416089984816
C           -0.01591389210550       12.13405327015388       -0.29899393658335
C            0.58054205348008       10.92515364969925       -0.58490898917992
C            2.59025525569667        8.75763227886427       -1.17621102374053
C            3.21189285941703        7.54988032525450       -1.50534363422853
C            3.81552644705186        7.31075221602468       -2.82137306552006
C            3.78537953926545        8.27392467784848       -3.83344930836066
C            4.34308802054163        8.05362923793994       -5.08273339645249
C            4.28326937766914        9.09868241261591       -6.12938413586215
C            5.36934808223633        9.33338662408720       -6.97169075720308
C            5.31151316253606       10.30969889131667       -7.94257221597363
C            4.16975649903316       11.07092016283840       -8.09291984017704
C            3.08395281228369       10.85260660244546       -7.26890174611045
C            3.13854324098530        9.87735870936755       -6.29690081959839
C            4.95936037239876        6.82054955321065       -5.33224768837602
C            5.00657251410099        5.85704505022247       -4.36495606334678
C            4.44282662042172        6.07247186791552       -3.10247043417152
C            4.46457310624753        5.06612338875044       -2.07632649151126
N            4.97722058476888        3.78159053673616       -2.03770145461592
C            5.65079962644569        3.10174065028307       -3.11789548329299
C            7.01677795208904        3.24958770409090       -3.30028129129743
C            7.65554476483748        2.59822271890623       -4.33127647714650
C            6.95553789216655        1.78344189117694       -5.21270477626968
C            7.70691223599395        1.07080931686375       -6.34767855710525
C            8.37148231032508        2.12135293745740       -7.25623610465919
C            8.78357954779569        0.14973201582350       -5.74461085587715
C            6.76096931012209        0.21201091847636       -7.20924567368062
C            5.58492311832635        1.64698979445784       -5.02363618773311
C            4.94115548855153        2.29511753113233       -3.99312258372263
C            4.42188728076969        1.56060827150837        0.97475131513606
C            4.68857315543367        0.31681187280648        1.50093995168954
H            4.61835232655475       -3.72117356544586        2.00958398718968
H            3.98856546810699       -2.85355551967592        0.60890240047068
H            3.75502213161273       -2.20227983802897        2.22860669552936
H            6.63914896832716       -2.75092026382857        3.30430496171845
H            5.75161335053389       -1.24708134399616        3.52255120051603
H            7.34957782675460       -1.22375355452970        2.78128475783423
H            6.93466602287816       -3.77044839849671        1.04740175140975
H            7.71052799978584       -2.29743211788692        0.48030098837105
H            6.33331739207215       -2.97438607130676       -0.40058807320617
H            6.71270635702756       -0.85141522441707       -0.91385625761067
H            6.24388163818492        1.34220417772767       -1.83711308700081
H            2.67289300361290        5.96105301733058        1.45329812702279
H            1.57300433200114        8.09814844082068        1.96942794931386
H            2.11614369660045       10.37750298983014        2.36318282668886
H            1.04347510494576       12.52650264095826        2.87283697500050
H           -0.31675792672843       13.65746927245555        1.16656295407193
H           -0.61330926130649       12.62909345700526       -1.04726264337270
H            0.44193870970796       10.46999332780352       -1.55056834413028
H            2.57629499827411        9.56229503113514       -1.88577227236980
H            3.32518815694838        9.22540496561850       -3.64902383011639
H            6.26545775970157        8.75033208780609       -6.84636342128997
H            6.16052128143288       10.48138611633024       -8.58417392184903
H            4.12626035765674       11.83496998220971       -8.85204695415007
H            2.19119710672618       11.44499513394909       -7.38726924747088
H            2.28565548610286        9.69886013095330       -5.66482876545704
H            5.38283728900831        6.63312663247650       -6.30392417026742
H            5.47617134549403        4.91382627142592       -4.57214185757228
H            7.56513395790386        3.87974021751527       -2.62171654418525
H            8.71699886961752        2.72321648341830       -4.45704893269600
H            9.09242276089909        2.72341103591971       -6.70474999056992
H            7.62436554223368        2.79493785767543       -7.67541576158689
H            8.89839607237770        1.64499137652747       -8.08274044213838
H            9.51338079735552        0.71720247147925       -5.16863911727263
H            9.32100331098763       -0.38635180442691       -6.52655832207235
H            8.33200465688011       -0.58631227977718       -5.07979080604980
H            5.98948490497381        0.82446390747935       -7.67529941187941
H            6.27724939099843       -0.55947077654772       -6.61060948409585
H            7.31113843403772       -0.28705376757490       -8.00679410408361
H            5.01015557267706        1.02618444523200       -5.68747786160777
H            3.88010780071748        2.18544624988526       -3.85063872819908
H            3.78122155488716        2.24853412583541        1.49887778033347
H            4.24788606354898        0.03621349781754        2.44175387637135
