50
 energy: -11.042983532291 gnorm: 0.000326905630 xtb: 6.5.0 (97a52f5)
C            0.56676384345261        1.23779813649020        0.11502664914197
C            1.35029916634043        0.11213182255304        0.03650457781060
C            0.72192242290960       -1.10353856910035       -0.00172062357305
C           -0.66762206429022       -1.16644059802426        0.03208602118777
C           -1.32456539087924       -2.49386663230613       -0.01069401071875
C           -1.01021330914523       -3.46512478903462        0.94135129969685
C           -1.57370920538527       -4.72531620188853        0.90667914232867
C           -2.46579296147320       -5.06972696162071       -0.09166941479856
C           -2.79191605182549       -4.12933046839760       -1.04421812124589
C           -2.24728828766978       -2.84326994271834       -1.01191275716486
C           -2.76037788424786       -2.08063559202965       -2.16292117426736
C           -2.53546355639590       -0.76901867207824       -2.55601278190332
C           -3.13701827535950       -0.29415949301353       -3.70224349505031
C           -3.96611702812797       -1.11064642754763       -4.45429333752335
C           -4.20729977962591       -2.41589048657681       -4.06711607440111
C           -3.60381334178581       -2.89388016406600       -2.92327361212626
C           -3.68306267230927       -4.27165929978153       -2.27512156260388
C           -3.20799539215678       -5.38411307186530       -3.20828261226889
C           -1.99487177492591       -5.55577709210523       -3.84047071524151
C           -1.81100324575569       -6.66975401973340       -4.63854367303488
C           -2.82688363262588       -7.59873086186475       -4.80086459616707
C           -4.04392479221678       -7.43201167942952       -4.17030647936253
C           -4.23487565047768       -6.31593925337467       -3.36854796451853
C           -5.40562809635659       -5.88805606081621       -2.58516688867137
C           -6.65100418998269       -6.47974908829796       -2.43179830787272
C           -7.58718098216459       -5.86145597738329       -1.62724782812107
C           -7.29148603790982       -4.67071356449326       -0.98219056745476
C           -6.05156408290008       -4.07646426427084       -1.12999011724411
C           -5.11216831556821       -4.68910194503928       -1.93192374662286
N           -1.43100717799924       -0.07011341453284        0.11370578215969
C           -0.79817094117281        1.08940190280039        0.15329293934813
H            1.01478368533629        2.21743308668080        0.14885767561435
H            2.42540199524904        0.18372682879533        0.00622391913855
H            1.29063861497330       -2.01514811455300       -0.06823914881425
H           -0.31096032544298       -3.21264445181046        1.71988048363016
H           -1.30987527777468       -5.45024364500415        1.65914534695016
H           -2.89860434908399       -6.05353905211304       -0.14163666073201
H           -1.91846671735228       -0.13168908274225       -1.95236653724365
H           -2.96624366672219        0.72408945806186       -4.01126971607452
H           -4.43149137986363       -0.72427696274616       -5.34620341442835
H           -4.85203993373477       -3.05970068282772       -4.63942829023205
H           -1.21426508461681       -4.82777816302508       -3.70446005473439
H           -0.86746573977155       -6.81663259029517       -5.13812666692090
H           -2.66493308539208       -8.46168337113181       -5.42576345132562
H           -4.83702616390755       -8.14886410055390       -4.29026491916383
H           -6.87193193755327       -7.40399362782580       -2.93609998766088
H           -8.55881492307691       -6.31004514596767       -1.50010061002329
H           -8.03526518709124       -4.20249056010550       -0.35852559646624
H           -5.80956707330288       -3.15268395377259       -0.63416794491584
H           -1.42071476284229        1.96822686048385        0.22028962368324
