99
 energy: -22.315478555775 gnorm: 0.000588913775 xtb: 6.5.0 (97a52f5)
C            0.70044178575463       -1.29160140136405        1.03148308456002
C            0.14320267582125       -1.21352030198190       -0.22988880872460
C           -1.07189425954659       -0.59095765400903       -0.40879898931417
C           -1.75056433126039       -0.03576972796626        0.67202524031186
C           -3.04354049688202        0.63418745500438        0.47846765696436
N           -3.63282625745942        1.14741795011701        1.54673652765445
C           -4.78778500635062        1.74799733218699        1.30855419616758
C           -5.50301420374226        2.32751093743685        2.45342267381136
C           -6.73432222313703        2.95156601660439        2.27580811246638
C           -7.40836865972730        3.49227991132987        3.34780622730286
C           -6.86364248403999        3.41859831760164        4.61484212378164
C           -5.64263520641815        2.80204701930344        4.80700326173846
C           -4.96742234210432        2.26047233965683        3.73594061860838
N           -5.35459290186648        1.86809397364345        0.11994430308104
C           -4.67765097352946        1.31168259162780       -0.87040590880287
C           -5.25879371117636        1.40580107565967       -2.21171454819836
C           -6.38537612154192        2.18312661961229       -2.43661063847310
C           -6.94579159588393        2.29014408377301       -3.69540756391983
N           -8.10204204932784        3.11948098495897       -3.88139812193523
C           -8.26982368123787        4.12510313161200       -4.85375909820542
C           -7.38019447435640        4.64565252846241       -5.79182835311743
C           -7.82511834779191        5.60712200031842       -6.66393380489427
C           -9.14278570442330        6.07060620314851       -6.61178438740198
C          -10.02925833556455        5.57929053636129       -5.68401343412196
C           -9.59104189004896        4.59853350823715       -4.79290975844471
C          -10.25405356033528        3.88179940775734       -3.72993339983612
C          -11.55739668778821        3.92787222979933       -3.23322038956193
C          -11.89977666982259        3.08534978171702       -2.20327262042835
C          -10.96774206964002        2.19603612023728       -1.66004541274393
C           -9.68237700842316        2.13872119962921       -2.13822336475786
C           -9.31735668389431        2.99076234355890       -3.17986509755659
C           -6.37827816853065        1.58282207622888       -4.76965595841023
N           -6.96133601925992        1.66637561991585       -6.07690191112612
C           -6.30588198818411        2.05941416490906       -7.26253435708241
C           -4.99145547670803        2.46469457734435       -7.48655864270076
C           -4.60952366437237        2.79829672387838       -8.76162549449361
C           -5.51916585519142        2.74619811104275       -9.82136756622069
C           -6.82214570140533        2.36096016016390       -9.61657191721891
C           -7.22275897283785        2.01488039805426       -8.32566452855739
C           -8.48773774747384        1.58289660738567       -7.78276838893465
C           -9.73606765396082        1.36225135866067       -8.36571610786338
C          -10.76901519976125        0.93152020488138       -7.56839577534162
C          -10.57887875009499        0.71027832647989       -6.20157817179354
C           -9.35561986755699        0.92004577920238       -5.61635769233302
C           -8.30060121277861        1.37183979595983       -6.40696497890691
C           -5.23986299527659        0.78853583511521       -4.54614354005323
N           -4.62593630657086        0.05395504870319       -5.61536346194976
C           -3.28354868718211        0.18791070068232       -6.02284622156656
C           -2.24375624038362        0.95249141219158       -5.49500003568634
C           -1.03042634892474        0.94700382237169       -6.13674886587640
C           -0.83384302555756        0.19662695967242       -7.29988941991459
C           -1.84984248414575       -0.55705276710886       -7.83618378062752
C           -3.08878217010269       -0.56366418143375       -7.19380380647506
C           -4.34528724219565       -1.20045347235002       -7.50836217958097
C           -4.74320907798055       -2.03164943665055       -8.55651715405070
C           -6.04475779247533       -2.47046360716356       -8.59228993248394
C           -6.95628250911193       -2.10072172353824       -7.59921492676282
C           -6.57784512960226       -1.28615999659986       -6.56179764293826
C           -5.26543057787743       -0.81912697094303       -6.51758184049049
C           -4.69452317612234        0.72020482929144       -3.27756333870754
N           -3.52305033824593        0.67790975682963       -0.75330227654387
C           -1.17641948936180       -0.12251097141615        1.93660853360878
C            0.03891581737729       -0.74530207892897        2.11396094804223
H            1.65190129359359       -1.77824138400118        1.17097839359031
H            0.65954000736442       -1.63921986762197       -1.07462710355296
H           -1.51499191871462       -0.52261243853157       -1.38704550252666
H           -7.14945284248771        3.00194314614119        1.28429324231473
H           -8.36121556583433        3.97287329581463        3.19759569855390
H           -7.39145632215881        3.84220932671330        5.45356491612438
H           -5.21800187094401        2.74431372675120        5.79579676310908
H           -4.01612727972208        1.77692457872618        3.87372827383891
H           -6.82178601581587        2.72134019700048       -1.61644671095313
H           -6.37191729760369        4.27502967410772       -5.82854656590561
H           -7.15039428127483        6.00741030635452       -7.40270974705410
H           -9.46657866643697        6.82510766344575       -7.30961214913403
H          -11.04473333633259        5.93097536144393       -5.63702797146714
H          -12.26998880778874        4.61133731645714       -3.66008376506071
H          -12.90212561144657        3.10831125535969       -1.80846024966954
H          -11.26409795799918        1.54515094674766       -0.85389873547785
H           -8.96090037388408        1.45417929469029       -1.72958631540862
H           -4.29787869379053        2.49309107026713       -6.66606800044319
H           -3.59263320424364        3.10146456140599       -8.94911877470999
H           -5.19294738399649        3.01324921566825      -10.81299674598655
H           -7.52946469137910        2.32087853840587      -10.42592823622780
H           -9.87276440130626        1.53050761658783       -9.41925931588715
H          -11.74027757809440        0.76013698693524       -8.00237344132413
H          -11.40588848939681        0.37457676021017       -5.59782098198978
H           -9.20032742942292        0.76085652143602       -4.56478273924144
H           -2.40591115290930        1.53326102927735       -4.60475561435630
H           -0.21667320644773        1.53146630186987       -5.73981573038674
H            0.12865283587607        0.21317113781395       -7.78406159138234
H           -1.70940261018618       -1.12968559387979       -8.73587600398401
H           -4.03581983344942       -2.31063417900153       -9.31734964649483
H           -6.36884075415949       -3.10932642525477       -9.39720515047685
H           -7.97222697429217       -2.45612502167333       -7.65225359916192
H           -7.27289371401430       -0.98655253292354       -5.79857622451769
H           -3.82408995046764        0.11480581886331       -3.10828254759083
H           -1.70009900486067        0.30798435943851        2.77219121651756
H            0.47456061163444       -0.80502214188894        3.09784076330572
