79
 energy: -17.712745860116 gnorm: 0.000538766009 xtb: 6.5.0 (97a52f5)
C            0.51491448446290       -1.50529225307087        0.69762593535844
C           -0.13988399947800       -1.51018057754441       -0.51830219591336
C           -1.31074417475863       -0.80232436308128       -0.67256315158206
C           -1.84630665671363       -0.07690441083078        0.38745715905541
C           -3.09381860656109        0.68063939135848        0.21791350662481
N           -3.52790020587988        1.38809606283582        1.24831214831020
C           -4.64829603531233        2.05708513862184        1.02825554075006
C           -5.18874988626752        2.86020733718678        2.13368031364465
C           -6.34972712622867        3.60821634121439        1.96316026582040
C           -6.86157935665750        4.35612271710044        2.99978426095295
C           -6.22210735607386        4.36912630126535        4.22379841231795
C           -5.06867109475781        3.63216052978936        4.40817541231801
C           -4.55563130879323        2.88371210998678        3.37233887697062
N           -5.32488910532396        2.06233323865395       -0.10804935383551
C           -4.79949162148395        1.31343372280058       -1.06170023357594
C           -5.49414740894374        1.28350652546819       -2.35300745589538
C           -6.60411627041070        2.08352639718102       -2.57789314188929
C           -7.24545574986038        2.08800588613362       -3.80689233718166
N           -8.35552147950867        2.96928817184192       -4.03295973173082
C           -8.40791534532223        4.33272484656383       -3.67761411338909
C           -7.46412514581933        5.15679449914010       -3.06450125377912
C           -7.78183758821710        6.47346120930625       -2.84071341754600
C           -9.02380936243479        6.98976252226544       -3.22041741312175
C           -9.96254980154251        6.19424681552514       -3.83166642174222
C           -9.65419824825862        4.85324062315528       -4.06468318323276
C          -10.39872910449914        3.77615577175944       -4.67262838615841
C          -11.68092583342088        3.71280886867642       -5.21985668632214
C          -12.12645879774165        2.51196017601620       -5.71697719730140
C          -11.31866887337210        1.37217783143838       -5.67403158625895
C          -10.05511302753451        1.42004685629063       -5.13938146014182
C           -9.58254628458128        2.63275761648520       -4.63950933568891
C           -6.76986687604417        1.26176472514803       -4.81588463591496
C           -5.66492315629970        0.44735843581187       -4.61117184995079
N           -5.15521201824274       -0.39199874553682       -5.65782908386908
C           -3.79924580664423       -0.51756934590330       -6.02227012180258
C           -2.65906117581224        0.12736389254429       -5.54317527714191
C           -1.44037262498584       -0.19343276369585       -6.08765334074758
C           -1.33420069206115       -1.14509558041502       -7.10573368828607
C           -2.44777137575908       -1.78456093601479       -7.59454072993557
C           -3.69387480214395       -1.46752591092032       -7.05202533857024
C           -5.02681587854517       -1.94699953522395       -7.33115628106195
C           -5.51462409308832       -2.89556856460243       -8.23106808884589
C           -6.86275305522281       -3.16055360945866       -8.24260150051043
C           -7.73245493678398       -2.50136560049421       -7.36928750698542
C           -7.26671238841295       -1.56587476697604       -6.47896314632363
C           -5.90315887500485       -1.27582016726433       -6.46156167159435
C           -5.03599249820690        0.46840203875516       -3.37659056808988
N           -3.69024091214448        0.60225160615401       -0.95948711142566
C           -1.17485248432318       -0.08090765877625        1.60593258517895
C           -0.00430251198544       -0.79000018083842        1.75895316119120
H            1.43118925600249       -2.05975227862192        0.81811650918419
H            0.26511670129176       -2.06774663344698       -1.34685613420763
H           -1.82932344792769       -0.79812642161314       -1.61547917917188
H           -6.84050455504178        3.58876821883542        1.00569229748662
H           -7.76219822141229        4.93021919650963        2.85598229352005
H           -6.62382405282992        4.95356477006403        5.03530559213774
H           -4.57047869596171        3.64153177988752        5.36372065298179
H           -3.65909376622023        2.30372203925355        3.50505934923726
H           -6.96780546640527        2.70922926230914       -1.78486116162240
H           -6.50588158484715        4.75820283662882       -2.78420472882442
H           -7.06213310210137        7.12039281608226       -2.36649268827646
H           -9.24593893684865        8.02744840952686       -3.03338294249148
H          -10.91961060618992        6.58427152121259       -4.13002336630644
H          -12.29831926410886        4.59339692449127       -5.24294838489304
H          -13.11446758806379        2.44562181753167       -6.14188959027818
H          -11.69560629291734        0.44110555219540       -6.06437736310536
H           -9.43576048986798        0.54374295937463       -5.08741646396126
H           -7.24221312511765        1.27818353201087       -5.77951004546762
H           -2.74765258056432        0.86491003912796       -4.76597963145242
H           -0.55131132866181        0.29633099042301       -5.72562755783248
H           -0.36447706128893       -1.37869381231561       -7.51338634252436
H           -2.37494988278383       -2.51728341814234       -8.37871257577016
H           -4.83694866003438       -3.40453076036690       -8.89352716157778
H           -7.25546546930090       -3.89087045185602       -8.93073997178437
H           -8.78423537378420       -2.73493488610228       -7.39304316540805
H           -7.92664912556825       -1.06952047056688       -5.79167472939649
H           -4.18191746826180       -0.15882711142611       -3.20392569172924
H           -1.58822419960179        0.48070423958493        2.42537743980761
H            0.50669092149032       -0.78670389648191        2.70775516054237
