100
 energy: -21.724197173605 gnorm: 0.000494360365 xtb: 6.5.0 (97a52f5)
C            1.31323013892514       -0.03887141042721        0.26288873191813
C            0.73237473885431        0.97181673917216       -0.47712187584548
C           -0.61903310464858        0.94602579560479       -0.73948191684636
C           -1.41605572326688       -0.09799394067417       -0.27608852227443
C           -2.87132794525033       -0.08764262506203       -0.53902487385516
N           -3.48052396131970        1.07536112780901       -0.45105954458166
C           -4.82250732916320        1.05631950775492       -0.56282316116214
C           -5.53840468894260        2.29184096751823       -0.49302750892164
C           -4.82599250693975        3.57924917917196       -0.43299211586036
C           -5.36936360964459        4.68318332282986        0.23231118714893
C           -4.71552202300060        5.88993621610877        0.25282111679761
C           -3.48919458652181        6.05331694211407       -0.39115506774050
N           -2.81191906085053        7.31173624513119       -0.37979464877387
C           -2.94914736415842        8.20268436284960        0.73786978768221
C           -3.02565777181691        9.57926018972543        0.54181037249532
C           -3.14927607128996       10.43546935848627        1.61266471523998
C           -3.19712411484176        9.93335944368671        2.89858718764724
C           -3.11932894672738        8.57048840006606        3.10979056872399
C           -2.99529991435102        7.71231175950392        2.04049878930064
C           -1.97720161195034        7.69273274505685       -1.48491725878376
C           -0.77303983100931        8.35794149869804       -1.26874923159844
C            0.02798044352256        8.72262908706165       -2.32731270806578
C           -0.35878743558881        8.43169539702594       -3.62110983023118
C           -1.55210191270257        7.77545825511995       -3.85215292284616
C           -2.35496783776368        7.40997019255632       -2.79529536148229
C           -2.94036423498386        4.95444001391167       -1.05012042039521
C           -3.59346710553307        3.74918422426734       -1.06826677280177
C           -6.92249595614809        2.26060446006996       -0.51018693485579
C           -7.61776116845756        1.07134048112609       -0.59948701029035
C           -6.96523927900716       -0.14665557995601       -0.69209370316835
C           -7.73921975131326       -1.39657960932831       -0.77659181065325
C           -9.00058240619405       -1.43120697814348       -1.38035681097567
C           -9.72980420465807       -2.59275566402587       -1.43250602660585
C           -9.23643526397409       -3.77570011867526       -0.88305258228369
N           -9.99806363654143       -4.98392317157555       -0.93364426280895
C          -10.89742626822558       -5.23008548529308       -2.02595064686486
C          -12.13160847277670       -5.83619218410166       -1.80546211741582
C          -12.99314512670792       -6.07597776874009       -2.85205802940213
C          -12.63756263931951       -5.71727772754969       -4.13771956179772
C          -11.41521604309718       -5.11850106776842       -4.37314681718919
C          -10.55203634998517       -4.87737334989309       -3.32816066727730
C           -9.87189108478050       -5.96499552066593        0.10759576093828
C           -9.88455876838255       -7.32450553798446       -0.19367457915304
C           -9.76926277581511       -8.26613801524311        0.80392073491518
C           -9.64101746193332       -7.86801797124357        2.12037768181374
C           -9.62968628011781       -6.52324472381310        2.43574242950530
C           -9.74481825205806       -5.57975567647088        1.43987876573120
C           -7.97838701362695       -3.74810376964410       -0.28336117301500
C           -7.25012920450677       -2.58729976533612       -0.23378307709200
C           -5.53535837687354       -0.16145940314635       -0.69106098509404
N           -4.89440682230574       -1.33231834165560       -0.87101318029454
C           -3.57936037708129       -1.28747812964167       -0.84485128448845
C           -2.86282759833421       -2.53648094572788       -1.18277237824649
C           -1.74887094322197       -2.53532188734471       -2.02256314116832
C           -1.11207255074605       -3.71109497289609       -2.34940921051214
C           -1.58145681575914       -4.91234167297382       -1.85655945270171
C           -2.69480471562315       -4.93426635530658       -1.04008878518816
C           -3.33287021542679       -3.75949858003334       -0.71036702193070
C           -0.81554701818834       -1.09969416028261        0.48690824326206
C            0.53604457636038       -1.07242317197076        0.74655029812105
H            2.37102438683564       -0.01738308319793        0.46841868380075
H            1.33671718414474        1.78444507073493       -0.84598897736712
H           -1.07910215866186        1.73770682881193       -1.30420872904628
H           -6.30646789098741        4.57539256801285        0.74996045912289
H           -5.15125227048464        6.73376431614202        0.75843952920832
H           -2.99364226473995        9.96279804588119       -0.46301796366113
H           -3.20920659480631       11.49879482222616        1.44716469805187
H           -3.29395447183118       10.60439934957651        3.73638878194582
H           -3.15362158933597        8.17831257606212        4.11310769761533
H           -2.91975503640639        6.65071714249808        2.19911920438958
H           -0.47449696885844        8.57457866163131       -0.25793850290911
H            0.95886866921246        9.23485051951278       -2.14642546272717
H            0.26928709289953        8.71698452515171       -4.44919188831028
H           -1.85578039224633        7.55055750868439       -4.86155559690016
H           -3.29134410116113        6.90910829332586       -2.96912841789525
H           -1.98527768641976        5.06174193973128       -1.53367645315295
H           -3.15829037369584        2.90965152214380       -1.57929508048504
H           -7.46669711430340        3.18814037839197       -0.47413793964249
H           -8.69342007449190        1.08808207836811       -0.58051273981168
H           -9.39412573406936       -0.53520644252510       -1.82747236424737
H          -10.70305279290980       -2.60150341430348       -1.89106133911943
H          -12.40446411909187       -6.10697613140766       -0.80046826284715
H          -13.94669644646160       -6.54330255857477       -2.66772434868581
H          -13.31277320213804       -5.90528780429034       -4.95645419603978
H          -11.13596424814931       -4.84126367633435       -5.37652773240248
H           -9.59323332218570       -4.42250679738726       -3.50610196964596
H           -9.97804624173164       -7.62714354847319       -1.22199383766781
H           -9.77827465403765       -9.31526699304195        0.55720111252624
H           -9.55091538226318       -8.60588557986310        2.90077315973466
H           -9.53245886128775       -6.21198878942318        3.46301644663317
H           -9.74936169508055       -4.53090446327537        1.68011890763631
H           -7.57838050244046       -4.65813957805506        0.12816042082394
H           -6.28084466468712       -2.58132681066844        0.23055209654614
H           -1.39308807429601       -1.59908863413699       -2.41660452443775
H           -0.24797799972522       -3.69364681304430       -2.99339622215527
H           -1.08301300219562       -5.83247769725825       -2.11451137067621
H           -3.06714232103932       -5.87275215333194       -0.66294157705547
H           -4.20648956041519       -3.77148168400154       -0.08265397621854
H           -1.42531833229043       -1.89687411365601        0.87540944649020
H            0.98726444773296       -1.85841001064137        1.32995744986349
