82
 energy: -18.464804096361 gnorm: 0.000615288345 xtb: 6.5.0 (97a52f5)
C            1.44180418915895       -0.93479408135242        2.01098818689008
C            1.08606391522104        0.33228824692109        1.59423000316750
C           -0.20547421084047        0.59105929608414        1.19500283955203
C           -1.17247939261124       -0.41278826772882        1.20330896356610
C           -2.55870761357742       -0.18845250594260        0.79769278723021
N           -3.48157205528436       -1.13331237540447        0.89318847151327
C           -4.63424921135417       -0.59414508863331        0.43864113123956
C           -5.93398431169399       -1.20782870598915        0.34441251207413
C           -6.12950865701387       -2.52894187000223        0.75095673528545
C           -7.36636194844368       -3.10917023758171        0.65974880639867
C           -8.43514694030602       -2.37989529273402        0.15928432778963
C           -8.26309820720774       -1.07940022732188       -0.24516762544214
C           -7.01268786852402       -0.45092949355699       -0.16626477613174
C           -6.79875308056916        0.93776066515758       -0.58982844021001
C           -7.83641661981458        1.72815821448687       -1.10269281533181
C           -7.61998725602555        3.02456155538140       -1.49637328121695
C           -6.35652578511744        3.58694873598799       -1.39434254389551
C           -5.31921329520411        2.84614401864242       -0.89696286201001
C           -5.51281289876460        1.52293579754730       -0.48750908515549
C           -4.43577082772014        0.72765058111572        0.04004728776798
N           -3.09793545380056        0.99877662870255        0.26734061575729
C           -2.41753549394046        2.24061996336997       -0.00692708864651
C           -2.37573928585097        3.24378702115739        0.95324164362429
C           -1.68707423055411        4.40638109843305        0.71416864140325
C           -1.01856930275087        4.60839160151134       -0.49310017984746
C           -0.24943383127343        5.81489029607048       -0.77875649986465
N            0.28119426741370        6.04996360626737       -1.96997089435643
C            0.94246498498432        7.22392327980710       -1.87177702762227
C            1.69560824538731        7.91529245665721       -2.88689629750244
C            1.79793279833868        7.39417180580319       -4.17790027609728
C            2.51460140404161        8.05420968670009       -5.14005421868392
C            3.14527112428646        9.25065938336735       -4.83132629001130
C            3.05700162812287        9.77893924774341       -3.56745183890504
C            2.33272798542344        9.13267016597351       -2.55624947765662
C            2.22451860778221        9.67142508746236       -1.19564392744526
C            2.84751727398461       10.86868107569187       -0.81743211887350
C            2.74403554847520       11.35594096942078        0.46093355781130
C            2.01297072444009       10.66691336425746        1.41670512765665
C            1.38975086932457        9.49538727388149        1.08355537628672
C            1.47763871756415        8.97713255400775       -0.21249995615833
C            0.83437849014100        7.74354281685421       -0.58143915643938
N            0.06178751695790        6.84291687467108        0.13017761437575
C           -0.30552618140703        6.95221112749464        1.52177075249690
C           -1.43508228573426        7.66789008356241        1.89518650677037
C           -1.78459671345722        7.77195260927284        3.22305169902367
C           -1.00985168099165        7.16429631183873        4.19131729401512
C            0.11684060007888        6.45247534297042        3.82938216520144
C            0.46869941607320        6.34692359673489        2.50214810606893
C           -1.08580343275720        3.60467634890360       -1.45859050527212
C           -1.77265342521844        2.43948991725147       -1.22132305572838
C           -0.79325746066361       -1.68407252530494        1.62854868142804
C            0.49896454205378       -1.94307552610154        2.02737301633146
H            2.45340949426119       -1.13638221461767        2.32333002774571
H            1.82115998401197        1.12047006832298        1.58062190862378
H           -0.47130205354221        1.58045647011874        0.87742663491513
H           -5.28951102517727       -3.07997814819312        1.13687475558528
H           -7.50990414418641       -4.12951682966739        0.97563301958828
H           -9.40721474102103       -2.84011773136591        0.08818799227064
H           -9.10873196683917       -0.53896756849593       -0.62914559900833
H           -8.82521458814723        1.31715760293429       -1.19208089171843
H           -8.43527349574891        3.61101839504540       -1.88776668389582
H           -6.19297527583800        4.60561706220755       -1.70611765895238
H           -4.34023858047071        3.28022490562767       -0.81688682055993
H           -2.88204476525274        3.08598803611724        1.88959612228327
H           -1.66191935303971        5.16997744689524        1.46709680429605
H            1.30253524430695        6.46505445804932       -4.40027324968172
H            2.58888457020762        7.64604442712568       -6.13472265760281
H            3.70877514747597        9.76739379301478       -5.59108117215443
H            3.55602076566395       10.70692469201686       -3.35665451955583
H            3.42155291258981       11.42175343944518       -1.53798480963757
H            3.23406242194814       12.27853631452580        0.72643679428973
H            1.93722077695916       11.05379480086155        2.41983190853763
H            0.82512563025156        8.96013694572054        1.82351564060259
H           -2.02866928806079        8.13709876926274        1.12997961909602
H           -2.66308614480844        8.32832717476801        3.50625977340333
H           -1.28466006544791        7.24584689058712        5.23025280498285
H            0.72088224420845        5.97827620218417        4.58549606478635
H            1.34301287122070        5.79448623828808        2.20499021251703
H           -0.57727033522794        3.75718052929493       -2.39460339709674
H           -1.81205360553765        1.66122764642024       -1.96326302924893
H           -1.53465316153225       -2.46402615009181        1.63971090392193
H            0.77376663603421       -2.93284617585364        2.35341688947770
