82
 energy: -16.772095781625 gnorm: 0.001809824341 xtb: 6.5.0 (97a52f5)
C            1.25708196684526        2.92555039979161       -0.69834701972288
C            0.20566929521883        3.53399932784018       -1.34768657127160
C           -1.06978519780365        3.02716928971670       -1.24266887008462
C           -1.32064599836172        1.89790969636627       -0.46555669743809
C           -2.64260431282178        1.29663531862007       -0.31024404450488
N           -2.82477737736727        0.18377987182373        0.38437655575682
C           -4.14497269434939       -0.09641311475808        0.32697806577423
C           -4.84849804951663       -1.20968220860137        0.91038715340209
C           -4.16649098192079       -2.17109848217230        1.65849706295937
C           -4.83854252491732       -3.22851133721505        2.21046486881272
C           -6.20845964482957       -3.34745285260569        2.02545628345174
C           -6.89635620593532       -2.41256938530860        1.29259685194675
C           -6.24372555674822       -1.31608653959766        0.71298948204194
C           -6.95248452979181       -0.29992216512984       -0.07287556932100
C           -8.33497419712678       -0.36286265353618       -0.29502307348680
C           -8.98564188061992        0.59579558934450       -1.02958149030933
C           -8.28193377615444        1.66015885280763       -1.57211481742799
C           -6.93105814166764        1.75419098548513       -1.37613194224278
C           -6.24199614471235        0.78943893287875       -0.63439502656069
C           -4.82025267184868        0.86784903292235       -0.42104428360662
N           -3.85733197223731        1.77259962562462       -0.83662463388576
C           -4.07952311617524        2.95565408433662       -1.63614947502397
C           -4.38929129868374        4.14188449526920       -0.96624545369844
C           -4.56864645710491        5.40763909569683       -1.49573846269891
C           -4.20185646428057        5.85690657674893       -2.72676703713073
C           -3.26780282857712        5.36071898074221       -3.60151523898291
C           -2.08390369295937        4.97623225357151       -3.29329408879519
N           -1.48313036780377        4.53982406088597       -4.28611125678759
C           -0.22932387373028        4.07139697042207       -4.31789685443882
C            0.38842168587343        3.28760870611582       -5.21715431555330
C           -0.11420586597507        2.77784722681806       -6.34754089929419
C            0.53752326309784        1.95848153824187       -7.27465906084529
C            1.81558623038888        1.43081522377059       -7.28448134520028
C            2.81860752637968        1.51879245436392       -6.36826410586654
C            2.90574951193721        2.10899653056149       -5.14065644534626
C            3.96827036465175        2.12379893055543       -4.33064983175549
C            5.15375901773958        1.54439441746804       -4.56720435226231
C            6.30446371280962        1.54699465420985       -3.77038963336678
C            6.56909286603873        2.10901309854820       -2.53687382294777
C            5.76395160244945        2.80959593124326       -1.68992596897020
C            4.44985444544523        3.12664229290952       -1.73459856733210
C            3.81778294100508        3.88193382619448       -0.87336370999823
N            4.30784781495482        4.52638416602459        0.10084565479222
C            3.77690889705399        5.63566301689452        0.61208135239229
C            2.65333265837340        6.24242149732761        0.08107172435799
C            2.01139861938019        7.39169934259266        0.52193385868148
C            2.34394860185595        8.20337445887195        1.59652461015029
C            3.37679220672790        8.01521303142982        2.42139194970586
C            4.51128060727079        1.26248957261125        1.43143526593763
C           -4.07796823022626        2.82353824202469       -2.97671678943070
C           -0.24407275828506        1.30039631527382        0.18822695747904
C            1.03030920746628        1.80643480086153        0.07259448546528
H            2.26192884252833        3.31568893724264       -0.80366867804476
H            0.38568202997232        4.40334658207534       -1.95749350125222
H           -1.85984630321651        3.50087425998319       -1.79770121974332
H           -3.10394270934351       -2.06334384157940        1.79139566004821
H           -4.30556887020529       -3.96616198274466        2.78772286913690
H           -6.73467185315336       -4.18062839472137        2.46178442677530
H           -7.95690633190971       -2.53046063618285        1.16585820550218
H           -8.90395555220210       -1.17695167940096        0.11505071009180
H          -10.04932409522997        0.52359003681770       -1.18770235011448
H           -8.79847731543192        2.41146168428964       -2.14680877096355
H           -6.38653112188218        2.58038724512428       -1.79282847069072
H           -4.54680408179167        4.02787015901653        0.09505583440947
H           -5.02867016041164        6.14411295831451       -0.85290202152040
H           -1.59267399031987        6.00893715849269       -1.98468654736582
H           -1.13864977884783        3.03709201513526       -6.56687489325832
H           -0.06383158735225        1.69599922351880       -8.13390889148140
H            2.07207748847796        0.84248907365692       -8.15316478572013
H            0.34933035470658        0.27257108428007      -10.78863153402760
H            5.22912775318263        1.01703079222389       -5.50611769136365
H            7.14205056336439        1.02056873890012       -4.20784363632889
H            7.57692351828260        1.98113914628097       -2.17042464529562
H            4.24919193548853        6.08514057841025        1.46839354472716
H            2.24651277237017        5.75392990720409       -0.78987518174452
H            1.14539578345938        7.69491539763868       -0.04756401930648
H            1.71585248036479        9.06281479492314        1.77753986295866
H            3.61817588321352        8.64214838502746        3.22934510247330
H            4.40176538305425        0.26978571867764        1.20882033381911
H           -3.86335850419685        1.91217483203208       -3.45003784327744
H           -0.42988409581061        0.42425386374835        0.78504118436078
H            1.85219532471553        1.33020998743742        0.58125552137063
