91
 energy: -10.029325685918 gnorm: 0.006512534488 xtb: 6.5.0 (97a52f5)
C            1.47228178301264       -1.08782270808507       -0.21217641566298
C            2.94944712324260       -1.14360158932901       -0.14864061996956
C            3.38784436871794       -1.52299634936488        1.25641815407821
C            3.43787472958918       -2.12844064459175       -1.08523250832303
C            3.49401828583270        0.19417396197786       -0.49107577761271
C            4.76413698657339        0.53564192384605       -0.58846170052066
C            5.23682718239427        1.72263798879596       -0.91140610033798
C            4.52866992076265        2.81231753553263       -1.16269485512131
C            5.02933586442908        4.02371491981705       -1.57782514928864
N            4.42093256294059        5.15013911480289       -1.55662369991694
C            5.17493278811269        6.08490509210727       -2.07909696487313
C            4.85656672695264        7.40370766632165       -2.20878542912393
C            3.85770843336651        8.03558407879555       -1.59863216604862
C            3.44432955606997        9.26673793743492       -1.78921270382672
C            3.80708534483885       10.13962925322963       -2.73095099330548
C            4.54118649789370        9.90937451985692       -3.88268150585637
C            4.17992351329696        9.14417988379176       -4.90474050014261
C            4.86076928063381        8.88011843419773       -6.00634572742810
C            6.07465909543293        9.29554392089821       -6.32776326460987
C            6.74303802852412        9.05107724605540       -7.44603501233678
C            6.35087925389401        8.37973046691518       -8.46669110457162
C            7.65298330800096        3.99292148929710       -8.13258195392548
C            6.94082973150966        5.02300322644367       -7.83318141777994
C            5.57470435512668        5.05666950884634       -7.67190180345397
N            4.84119979362245        4.74827907810235       -6.64018391795388
C            5.19394507037365        4.32886426175415       -5.46691741656442
C            6.46001521131921        4.12366968371010       -4.92600114185413
C            6.94105561916723        2.99504629296329       -4.40792508153584
C            6.31755930483591        1.83553838800729       -4.32641758158139
C            6.72268878973792        0.67760790551927       -3.82123216875004
C            7.86104370011733        0.31220952971877       -3.25175795266829
C            8.94530594697952        1.01394080124670       -3.04628122903730
C            9.08922538329151       -0.93816941888716       -6.36141095396703
N            9.83716640567396       -1.96356226578281       -6.45566212865090
C           10.37199424100118       -2.64361360466183       -5.47309225423320
C           11.14132997474438       -3.75903631100803       -5.53656431087125
C           11.62076691668900       -4.42234802164257       -4.51834720228660
C           11.45772472892192       -4.06462188156007       -3.23183371087938
C           10.37249074719780       -4.25144018872860       -2.50157220739880
C            9.27104605400442       -4.78309094946113       -2.87879701038695
C            8.15090512691741       -5.22089982688080       -6.82858318105340
C            9.12587145497543       -6.24452132448414       -7.08487989609317
C            9.76545383299704       -6.76970528136979       -5.91675315739987
C            8.74309103405347       -7.24506648000310       -8.08705649450032
C           12.55674288005378       -2.76906857782773       -8.70764870534135
C            7.51382859968128       -4.48756974587144       -7.72151500289088
C            6.67045530893502       -3.55256357574421       -7.48370624257022
C            6.28127948813683        0.71872773235540       -7.67498037756969
C            5.17654990834701        1.24936140012079       -7.88569420331530
C            3.39802163488815        2.43852655892943       -3.97734252695499
C            3.03145610399466        6.24631870419592       -4.30794098386206
C            0.98947271999034       -0.20560024413589        0.62335514556494
H            2.99317483115945       -2.47091143930433        1.56413782590913
H           -0.99148551896597        0.08976909434453       -2.64416393751960
H            3.13443797343352       -0.77827662319824        1.98311122722284
H            2.59612470861026       -2.82662774300774        4.53925282483706
H            3.79785661967646        3.02544401745020        1.54231991385362
H            7.85674610175336        0.18789420728556       -0.40702208678794
H            1.07278918427471       -4.09307557221865       -0.06630275040898
H            5.19876161299615       -4.05365967242073        0.46051679687655
H            1.76238195717035       -0.07692831204345       -2.96493525267132
H            6.27980192066321       -1.76334780630249       -1.66446510148540
H            7.44217540031621        2.77298551246708       -1.45970360925308
H            4.68865444087085        5.61355783839748        0.78509360433935
H            4.74841123394575        9.00252370953169        1.04034766946963
H            3.27399960055370       11.91079598030913       -0.32247454275149
H            1.31589194430243        9.52790894846935       -4.05785358874738
H            4.70720434543472       12.22248645674601       -5.49385968056576
H            4.19873733446349       10.98185434115931       -8.03285825115337
H            6.82898384382173        6.34779122305410      -10.58539890765037
H            5.13056240543937        3.25745809867557      -10.06147108501922
H            6.33383298450085        6.96210030742084       -4.65716518429620
H            9.00231479888806        5.54771326200813       -5.88569413738137
H            9.80129111996793        0.62751966479165       -2.57454036979429
H            8.79249280722359       -0.50339776631625       -5.45124431267710
H           11.01846820770892       -5.20249805221184       -8.99222859181528
H           13.70235319491271       -3.76352039663071       -5.04173988089107
H           12.44456293638708       -6.05959652804056       -4.78717075557494
H           11.35351769462868       -4.42429792069602        0.22454594925658
H            8.29842477085474       -2.35732160744920       -3.44320747630706
H           10.17429592637592       -6.01637117474466       -5.30639186540608
H            7.94488663591164       -7.87287206505208       -7.74523235492367
H            8.47229112583577       -6.80015160805921       -9.02394655240395
H            8.87300695735564       -1.60662819389538       -9.15983057558524
H           12.74387505299451       -2.00601537955388       -8.04481834184439
H            6.23585368014017       -1.84449325570004       -5.26222745525858
H            5.13729030090890       -1.64188229609083       -8.95362595626699
H            4.32726105818076       -0.46985839568720       -3.35195503780346
H            1.79867649265356        4.05960801367571       -5.93350049838702
H            2.17333237161240        5.70277854800686       -1.22252348190395
H            1.76023136786850        2.33361298747779       -1.40738316713264
