56
 energy: -12.430039468764 gnorm: 0.000741595500 xtb: 6.5.0 (97a52f5)
C            1.04336761222527        0.09645497956936        1.76025936932009
C            0.37505655974975        1.30067761156447        1.85579407616141
C           -0.95338154079094        1.38248619132496        1.50408892257833
C           -1.63593332539192        0.26071056952262        1.03361856194080
C           -3.06574234329920        0.32108338565884        0.65214999000543
N           -3.84046172868036       -0.62813821954628        1.12692746780020
C           -5.15444427612236       -0.49614733721645        0.84716171330018
C           -6.06237305382527       -1.45735058630316        1.33274479742265
C           -7.40182432712597       -1.34698843874699        1.09804558625013
C           -7.89777874768582       -0.26791799335294        0.36692422674128
C           -7.04541555915306        0.68018611289186       -0.11855811372144
C           -5.65677366241809        0.59606280192187        0.10366238272499
N           -4.84646888673962        1.54146343395850       -0.41627038787126
C           -3.56396328559264        1.37942548875388       -0.17464509519260
C           -2.64362967388089        2.34287318631012       -0.81360973208515
C           -2.98732232233178        3.69284104479342       -0.87318157765377
C           -2.14052489319939        4.61064627359234       -1.44423461128407
C           -0.92189286277007        4.20889958897285       -1.98247100171233
N           -0.00768937910071        5.17063204100867       -2.52905028406247
C            1.35543621079863        5.29429337253341       -2.18790546289784
C            2.13133555745937        4.59157331575468       -1.26705671312580
C            3.45332586794817        4.93332124010736       -1.12154669179148
C            4.01673540625076        5.96651730195976       -1.87531506129544
C            3.26246305137369        6.67628320060812       -2.77898882334472
C            1.91675709444178        6.34281582094859       -2.93570347957697
C            0.86804522294135        6.88395055458157       -3.76981896515017
C            0.85283898260220        7.91016497142967       -4.71498661015821
C           -0.32268077458217        8.18283160031409       -5.37291674204073
C           -1.48231498819081        7.44920920357198       -5.10837887166014
C           -1.48290021573343        6.43704752470304       -4.18016193097098
C           -0.30093841646129        6.15304282989194       -3.49795967067519
C           -0.59038048320624        2.85807822253298       -1.95915434707398
C           -1.43950822232343        1.94021401432830       -1.39459000997991
C           -0.95113582746103       -0.94954380498386        0.96240874014378
C            0.37681575077388       -1.02876291280895        1.31765160216676
H            2.08308663649314        0.03337899468743        2.03686894001884
H            0.89349237293248        2.17750930627853        2.20777339845394
H           -1.47970926319832        2.31777847229482        1.58502685917670
H           -5.67099012351078       -2.28314643272879        1.90056777647956
H           -8.08010139677717       -2.09264863571367        1.47909317172210
H           -8.95680775872649       -0.18588891614822        0.18536084211003
H           -7.41810952453147        1.51400507546033       -0.68728251784873
H           -3.92703773722338        4.00439144292032       -0.45109917331180
H           -2.39704802474557        5.65533752498511       -1.46179122750978
H            1.68691647064738        3.80589247311652       -0.68259478600272
H            4.06586361881683        4.39805218186019       -0.41475575403093
H            5.05757852372750        6.21177510836889       -1.74243198887931
H            3.68737204733206        7.47668825281420       -3.35850192600418
H            1.75107937197409        8.46613558673770       -4.91769163306746
H           -0.35118653034496        8.97132145818108       -6.10683027740321
H           -2.38876344651409        7.67964870356210       -5.64361603042150
H           -2.36725997396561        5.85929458203894       -3.97964030957689
H            0.34110281803391        2.54500059710992       -2.39731201801232
H           -1.17825816776924        0.89645780743539       -1.38679873663234
H           -1.48029341331740       -1.82275213820859        0.62172750984479
H            0.89599498016440       -1.97081803518005        1.25119462765856
