36
 energy: -7.823025023002 gnorm: 0.000657211783 xtb: 6.5.0 (97a52f5)
C            1.17770550453143       -0.18386421304110        0.95412461630049
C            0.61341101792169        1.02967677477179        1.29207905870234
C           -0.71145902602235        1.27651496126403        1.01133248592625
C           -1.49515179493675        0.31680964971699        0.37184681187511
C           -2.92701875541987        0.54715847097447        0.07543404798666
N           -3.75034617040399       -0.43889868724047        0.35118228645179
C           -5.05881371318731       -0.17298281736636        0.15126762615375
C           -6.01471732723700       -1.16924659804464        0.43011384480917
C           -7.34839848767374       -0.93474354258784        0.26513677924491
C           -7.79036736652887        0.30902305610367       -0.18390891016813
C           -6.89030639754892        1.29492381791433       -0.46459035846087
C           -5.50607897798723        1.08580070506471       -0.30878615731355
N           -4.64750305052798        2.07759820720452       -0.62850827926250
C           -3.37469486619698        1.79250337279543       -0.46887859397406
C           -2.40372829612577        2.82158608815632       -0.90635297080408
C           -2.58702582554951        4.15114522449940       -0.53615282475565
C           -1.70023141812024        5.12312603353592       -0.94208568524366
C           -0.62077103508590        4.78714559641679       -1.73444805149993
C           -0.43456117334677        3.47677628264798       -2.12680030192592
C           -1.31934062817785        2.50273840633015       -1.72271124302743
C           -0.91411321040050       -0.90809823699179        0.05586780555300
C            0.41076095768450       -1.15333323833459        0.33981299855860
H            2.21472163646915       -0.37625916409837        1.17547676512717
H            1.20974879721128        1.78444944742517        1.77799888599219
H           -1.15620902176786        2.21749723847301        1.28472947753633
H           -5.66459913459307       -2.12397263411532        0.78124838879359
H           -8.06350254738064       -1.71041832859082        0.48453348366553
H           -8.84530092379377        0.48850968032307       -0.31110247557525
H           -7.22210319900218        2.25547861029561       -0.81754129841094
H           -3.43593350687503        4.40539416695680        0.07477913759461
H           -1.84992234442665        6.14743286847616       -0.64220905647212
H            0.07317440307065        5.54866293232773       -2.05066886532496
H            0.40389032012357        3.21555806032317       -2.75151270400577
H           -1.18168835785471        1.48107250262300       -2.03190374801417
H           -1.52216302152056       -1.66221285963678       -0.41330171233882
H            0.84822694067773       -2.10456183457688        0.08450873630740
