48
 energy: -10.535954430240 gnorm: 0.000944112412 xtb: 6.5.0 (97a52f5)
C            1.94624312633527       -1.20252255582264        0.42164233288135
C            1.36246415351396       -1.75853556675228       -0.70062124712374
C            0.00031433727111       -1.67640815349143       -0.88071978857828
C           -0.79797245935474       -1.03507571875843        0.06200203619906
C           -2.23911866458202       -0.94128481547116       -0.11792308995574
N           -2.90883384127422       -1.44078118026437       -1.15846296789552
N           -4.16731520625868       -1.17845921825491       -0.99684952542483
C           -4.31197864183074       -0.50330598690081        0.14603410475337
C           -5.57947591099655       -0.01990922029434        0.66868684738771
C           -6.76919609872398       -0.23407522834749       -0.02386820967588
C           -7.95981111729231        0.22732882585091        0.47692785182670
C           -8.00155105830205        0.92073183218573        1.68892647401970
N           -9.25082806321836        1.40969037914699        2.21564672914906
C           -9.77247360028528        0.90466120005396        3.44012775260308
C           -9.12230919879069       -0.09765215776684        4.14173941822737
C           -9.63688334919602       -0.58700220096877        5.32639081216134
C          -10.81686342208032       -0.08076069554118        5.82444566237162
C          -11.48672471337211        0.90932427882564        5.13533529714810
C          -10.98775070573780        1.41218918444720        3.94072698695003
O          -11.71054901901298        2.39722770892197        3.27285848237351
C          -11.19652299315277        2.88868136235873        2.07577825965648
C          -11.89846627565086        3.88046993054137        1.40308637205446
C          -11.41982023663735        4.41439254285006        0.22423710332589
C          -10.22739524590864        3.96626172034367       -0.29923675841120
C           -9.51621450284949        2.97824872328916        0.35311272278537
C           -9.98422231734722        2.42031795907981        1.53171262086961
C           -6.80619697372056        1.13286511166697        2.37977023830690
C           -5.61692267003315        0.66998221906514        1.87738011155717
O           -3.10103036966858       -0.33308049365823        0.74217838847650
C           -0.19818865350711       -0.47908347937959        1.18675635092839
C            1.16419544402098       -0.56336007286053        1.36445911511800
H            3.01276085316599       -1.26647909266647        0.56149365709434
H            1.97331739101974       -2.25681283486539       -1.43553499742724
H           -0.46591442099006       -2.10586950610280       -1.75050215910050
H           -6.73670938017845       -0.76871178666153       -0.95715035871614
H           -8.88063982223011        0.05279309674854       -0.05149230865197
H           -8.20735810270345       -0.50239486956364        3.74768679742026
H           -9.11500871428960       -1.36451349711142        5.85933762135384
H          -11.21983941255595       -0.46008716962933        6.74908954552530
H          -12.41339286536421        1.30783629444903        5.50840585511735
H          -12.82390477495789        4.22728995374135        1.82733913814575
H          -11.97724391663048        5.18455942543803       -0.28296689951210
H           -9.84809787712542        4.38700496962993       -1.21575551973091
H           -8.57927452865806        2.63802476059294       -0.04990264304789
H           -6.83407102415780        1.67624724584685        3.30793682882489
H           -4.69400821821677        0.83429606577280        2.40632719496256
H           -0.82022006297796        0.01606215268841        1.91286197375938
H            1.62039312449197       -0.13040144240823        2.23971578988645
