75
 energy: -16.839627283028 gnorm: 0.000734448971 xtb: 6.5.0 (97a52f5)
C           -0.12903516944314        1.65179099267906        0.50410166358446
C           -1.24913477476014        2.03840623073217        1.21455776420386
C           -2.47443058604288        1.47579356790728        0.93259259794920
C           -2.59306454472780        0.51875473632887       -0.06597946267684
N           -3.86156985359900       -0.07663824127117       -0.37637066467367
C           -4.12935528118984       -1.44086396109631       -0.60769986972594
C           -3.14142154005999       -2.52114682290942       -0.42103515674528
C           -2.40218757128244       -3.05592840657989       -1.49689650540771
N           -2.45127304766946       -2.46128762515678       -2.80610850520048
C           -3.58458294119333       -2.24707357736921       -3.61903035640896
C           -4.91635716286434       -2.62092509029232       -3.45045966087879
C           -5.83355974095279       -2.26215822483147       -4.40674538864464
C           -5.44576054686999       -1.54734834047703       -5.54321312006219
C           -4.13366995827738       -1.18973989451716       -5.73825383191722
C           -3.19162988641709       -1.54626430055769       -4.77182783140746
C           -1.76612351351400       -1.34295490116540       -4.68603178905107
C           -0.85295907511221       -0.71112641506957       -5.53173481833984
C            0.46921222896134       -0.66902413057101       -5.16010646365543
C            0.89788366772368       -1.24529464485336       -3.96099917775341
C            0.01137550416889       -1.87314831921744       -3.12164601748349
C           -1.33409378885052       -1.92807589581199       -3.48491165969326
C           -1.49740564393145       -4.08072128027588       -1.25199118833228
C           -1.29034627593300       -4.55808005209903        0.02400837415918
C           -1.97074005984296       -4.00624318306020        1.08676812418073
C           -2.89213804121014       -2.98993079311081        0.88348921787289
N           -3.50436530903204       -2.33084902731071        2.00744941550642
C           -2.83444418294506       -1.41976250925349        2.85023760375832
C           -1.48165930159123       -1.09717585965850        2.94084030232856
C           -1.09474159001730       -0.12324606717893        3.82788499353923
C           -2.03382828568685        0.54134822645288        4.62226206083882
C           -3.37216145970561        0.24072427964276        4.53794402258324
C           -3.78045590002853       -0.74980673242843        3.64327558769567
C           -5.08038183578089       -1.26339251356397        3.28301279571878
C           -6.36993721367259       -0.94983554494552        3.71526694217049
C           -7.43387937659451       -1.60730288600070        3.14604675391599
C           -7.23669781596114       -2.57230946515749        2.15421119648103
C           -5.97412850271935       -2.89130139593309        1.71971334571586
C           -4.88435800889801       -2.22949648353951        2.28211476957466
N           -5.41175770705884       -1.65351179486719       -0.85011261742501
C           -6.02131252985262       -0.43711929300965       -0.81425417813532
C           -7.36698413488883       -0.09849708413230       -1.01219513308545
C           -7.73637826673944        1.21806401366788       -0.91902079594723
C           -6.79522924057152        2.21765660998802       -0.63614076749246
C           -5.47381438825434        1.90925325379254       -0.43779255153214
C           -5.08312213587179        0.57151888696590       -0.51817414659939
C           -1.46131841939119        0.13737412245688       -0.76948324081341
C           -0.23739779249564        0.69876658099887       -0.48944517310375
H            0.82934696289865        2.09132415063470        0.72726662490627
H           -1.16312043727729        2.77430907269604        1.99719999999794
H           -3.34732430552768        1.74807073854817        1.49950869766244
H           -5.20717920586806       -3.16155775291056       -2.56757998056667
H           -6.86912460698083       -2.53018864660934       -4.27630544069907
H           -6.18669842968731       -1.27522949905300       -6.27686689742400
H           -3.82468518809387       -0.64546514951513       -6.61315049520861
H           -1.19184755469358       -0.26729988811848       -6.45113303240675
H            1.18698546668445       -0.18389383216429       -5.80101958818090
H            1.94034049706626       -1.19555394844693       -3.69230229243382
H            0.33367430290608       -2.31292097842673       -2.19483857822885
H           -0.94531285980922       -4.48867437654402       -2.08074426993359
H           -0.57926684566665       -5.34988658245877        0.19345605850440
H           -1.79094724559713       -4.34834517063229        2.09099573646219
H           -0.77091168010037       -1.60039092949158        2.30998541991219
H           -0.05293843106337        0.14102884251729        3.90570418666978
H           -1.70251600114853        1.30578722697500        5.30572049844516
H           -4.10215175594507        0.75589069558344        5.13696988647645
H           -6.51367593112867       -0.20215833544329        4.47514847444005
H           -8.43622965020194       -1.37444232790780        3.46596527833632
H           -8.08920484544768       -3.06645043378000        1.71799751412863
H           -5.81123816266663       -3.61201981816714        0.93819833716051
H           -8.08019489777173       -0.87310435516135       -1.22994234460398
H           -8.76790970819107        1.49127211007843       -1.06891349482954
H           -7.11600796633909        3.24462741773834       -0.57649322749056
H           -4.74277521110787        2.67051958036944       -0.23325368158249
H           -1.56976025109767       -0.61072488048293       -1.53302574375450
H            0.63387494253398        0.39448632584448       -1.04570510532061
