99
 energy: -22.139425579547 gnorm: 0.000585289077 xtb: 6.5.0 (97a52f5)
C           -1.08934709744391        0.45420177481857        2.54839088339444
C           -0.99871543171260        0.64534956049292        1.18365490393124
C           -2.08018097606152        0.37214312639783        0.37607950701887
C           -3.26517483176652       -0.09779347809622        0.92646290238275
N           -4.40389807245995       -0.37262148047411        0.08308044412081
C           -4.79950475277115       -1.60169698229932       -0.47698953972794
C           -4.11587578280597       -2.87964455185825       -0.33999640824464
C           -4.73557047180009       -4.03192637205718       -0.82537826720088
C           -4.13181291100455       -5.25853648303577       -0.72373383348415
C           -2.86860280566805       -5.39086835552737       -0.13347100471771
C           -2.21510793926428       -6.71826854498683       -0.02060674199958
C           -0.99379989686686       -6.98007209353470       -0.69630677248263
C           -0.38074347903351       -5.99735681880659       -1.51087620141243
C            0.76919856185372       -6.25641144226792       -2.19082822942376
C            1.37069714525372       -7.51685444148088       -2.10342569625949
C            0.81108458328716       -8.49125148412302       -1.33634453695172
C           -0.37971940820736       -8.26187707663981       -0.60367911051784
C           -0.97614895496799       -9.28824756534759        0.17261497520983
C           -0.34791290616329      -10.62997972373880        0.25447132277175
C            0.93090448643787      -10.80489720195873        0.79308889013370
C            1.50233339284503      -12.05667095430915        0.85536677089602
C            0.81614969702445      -13.15787110375772        0.38996343350796
C           -0.46030863204379      -13.01894236629810       -0.14432970323460
N           -1.19098566827179      -14.15978863018134       -0.62140861310286
C           -1.37696468185969      -15.37831987425298        0.06424661712361
C           -0.92410776518068      -15.80536602610002        1.31218749169409
C           -1.27655880254408      -17.05849208815095        1.75014654738758
C           -2.07784032765953      -17.89595795736653        0.96962618660275
C           -2.54029388263930      -17.48767681721011       -0.25875471685525
C           -2.19008674445514      -16.21745873114624       -0.71673784359769
C           -2.51917707650535      -15.49467594779266       -1.92372042507875
C           -3.28437997536047      -15.83082271837634       -3.04056150171921
C           -3.40857577477165      -14.91188576414676       -4.05529190303280
C           -2.78004542218846      -13.66629721838843       -3.97760847607358
C           -2.02422509305981      -13.32153111415806       -2.88400236704301
C           -1.89534037925816      -14.23824323966646       -1.84084975122935
C           -1.02589470402892      -11.75634302402065       -0.20781207345489
C           -2.19380193831660       -9.02706973051117        0.85134120960707
C           -2.81170711661713      -10.01236078328059        1.66073810493327
C           -3.96963780620267       -9.75789077811822        2.32806011783024
C           -4.57590684554750       -8.50030499421790        2.23327074797868
C           -4.01150444485215       -7.52359348161225        1.47229410383157
C           -2.81189194630156       -7.74787795086023        0.75416372142519
C           -2.24470391300109       -4.23254792393934        0.34696210434590
C           -2.85559072462079       -3.00946487533184        0.24668034758753
N           -5.92612473972632       -1.47469727912610       -1.16662668657548
C           -6.28575892061186       -0.17625562901039       -1.07974456981324
C           -7.43393178449752        0.47412344585572       -1.65745902601882
C           -8.34253148456240       -0.24360942762291       -2.43746005075620
C           -9.43244894773908        0.37816542059167       -2.98536792278994
C           -9.63705219319716        1.73261235187802       -2.76524966401869
C           -8.75517273214931        2.45539544141461       -2.00084509287822
C           -7.62909228751519        1.85376638583189       -1.42231205414583
C           -6.67270134451053        2.59928721462439       -0.59560800251567
C           -6.83206832589703        3.96465959182791       -0.32203216173307
C           -5.93211541664705        4.64811539638251        0.45605868787433
C           -4.83338360002078        3.99519658996254        0.99410133381183
C           -4.64476570528883        2.66253664568908        0.74848592717481
C           -5.54680555347409        1.94213693751923       -0.04131714566048
C           -5.36954369471018        0.53859918751563       -0.30678100196546
C           -3.34747186961495       -0.28562627558038        2.29943717707091
C           -2.26462202405563       -0.01104781793151        3.10477612757011
H           -0.24263620702058        0.66902223904574        3.17972349018204
H           -0.08198163697462        1.01074335922438        0.75041499575281
H           -2.02523815112265        0.52007704336637       -0.68842169808560
H           -5.70418717311631       -3.93758938287662       -1.28474220070222
H           -4.61959027261108       -6.13787766213429       -1.10794018557109
H           -0.84711907832065       -5.03242080117202       -1.60033174561739
H            1.21689686086651       -5.49322332023393       -2.80621720603278
H            2.27673226417657       -7.71490349576258       -2.65256085793777
H            1.26941935725406       -9.46301294610984       -1.29216840691626
H            1.46083669578412       -9.94530227342838        1.16590114280529
H            2.49032385818778      -12.17579524373369        1.26906791610795
H            1.26425892838738      -14.13550456933531        0.42064039743422
H           -0.31977216463789      -15.15129563457159        1.91455795715867
H           -0.93244511916395      -17.40127673228526        2.71218041441154
H           -2.33986308047136      -18.87402547771991        1.33856232662321
H           -3.16289016774338      -18.12331548681797       -0.86338101322813
H           -3.76125514892874      -16.79359969666972       -3.09386222928607
H           -3.99615960564894      -15.15570436098771       -4.92511959062023
H           -2.88948974308613      -12.96659530168679       -4.78992677975922
H           -1.52743676898471      -12.36978788898688       -2.82503995336230
H           -2.01370599027844      -11.64522303319296       -0.61526685858199
H           -2.34469206704321      -10.97651326143647        1.75415943650429
H           -4.42179108336372      -10.52349169890876        2.93715835367747
H           -5.48976225678537       -8.30649909749552        2.77073454226262
H           -4.47471070381913       -6.55438434565002        1.41968334008106
H           -1.27700491064066       -4.31980120539634        0.81039480765761
H           -2.35619312008704       -2.13662360309603        0.62054826966392
H           -8.16783034716753       -1.29324809251970       -2.59862597583519
H          -10.12951950788404       -0.18242202049216       -3.58652056688913
H          -10.49558501046786        2.21921364685377       -3.19881869891246
H           -8.93841324530514        3.50315175421194       -1.84813229558910
H           -7.67572668685107        4.49428400463198       -0.72511460492825
H           -6.07849285840584        5.69789266901739        0.65216394968836
H           -4.13017512653252        4.53755671942795        1.60496043975305
H           -3.79535446715297        2.15561888117901        1.16622834383518
H           -4.26993626276959       -0.64758743140607        2.71896773569556
H           -2.33488186117102       -0.16021070473967        4.16985951664192
