113
 energy: -25.252971813430 gnorm: 0.000403934871 xtb: 6.5.0 (97a52f5)
C           -0.62975507718858        1.04041637457849       -1.93351465727218
C           -1.78436778940259        1.49004459482381       -1.32299998122060
C           -2.94943753097420        0.76364096457104       -1.43044807063159
C           -2.97198193612997       -0.42518380054925       -2.14785393289093
N           -4.18517607460123       -1.19363883428565       -2.25057243714673
C           -4.41031302415257       -2.53374186956866       -1.87797360551888
C           -3.45953599370096       -3.40482740748540       -1.19334112825736
C           -3.62443573662710       -4.77939263609739       -1.31819148093711
C           -2.83148153584888       -5.65175146300022       -0.62306319838124
C           -1.82289031806887       -5.18513420647047        0.22087338020035
C           -1.06401783845020       -6.18362384114001        1.01064392783509
C            0.32762942543448       -6.33382298267052        0.91933187039012
C            0.95914509183668       -7.45930498906260        1.41363006707340
C            0.19842031083862       -8.46194625315221        2.01234685611252
C           -1.17590113812458       -8.28108114919251        2.17622519127267
C           -1.79834751047258       -7.15485566873510        1.69182214057610
C           -1.83814919068759       -9.59092270694951        2.61193678338881
C           -0.64481490723253      -10.55064472830355        2.66690415883938
C           -0.60144173510953      -11.89168522341622        2.98382034350986
C            0.62102432975694      -12.53796561376958        2.98895777406271
C            1.78560843317338      -11.85252087939893        2.68020944988299
C            1.75148513592160      -10.51025077364767        2.36066380060450
C            0.52934104254062       -9.85244748139003        2.35972327463789
C           -2.50937796152650       -9.42139075644423        3.97535394934781
C           -1.79351734722694       -9.62488324263423        5.14211196388178
C           -2.37906374849357       -9.44646099293873        6.37754364248299
C           -3.69842847205116       -9.05654214218546        6.45994472958567
C           -4.42406177188803       -8.83709652033409        5.31119143231171
C           -3.84676786158220       -9.00256815361912        4.05108055261708
C           -4.60520073035182       -8.75493364973378        2.81468112393080
C           -5.75018681712446       -7.98552752422109        2.80334738352264
C           -6.42997377584753       -7.71587789967243        1.62344868064081
C           -6.02746485935921       -8.24651056936518        0.41294802897987
C           -6.61758331770164       -7.71839814538059       -0.84317435225505
C           -6.46144482943450       -6.36211564394111       -1.13670682704244
C           -6.85980200011177       -5.84697546599627       -2.34262502243244
C           -7.46650731979864       -6.66084194066358       -3.29444891177356
C           -7.84750415150287       -6.11786366021192       -4.59998881309423
N           -8.98791654376239       -6.39495707960451       -5.20665092110259
C           -8.98325614155037       -5.69241735850833       -6.37544237337600
C           -9.94404214336095       -5.62944526276693       -7.39387038567325
C           -9.68489171845240       -4.86314598818120       -8.50095246761978
C           -8.48214721303397       -4.15565046919689       -8.62794456186465
C           -7.52761886050270       -4.20242328492337       -7.64465603139646
C           -7.78147078707352       -4.96707318735212       -6.50389700096378
N           -7.04002927152554       -5.24446388459238       -5.35853431650156
C           -5.66626609882666       -4.87616262176339       -5.13506156193521
C           -5.23426297110831       -3.57482834219649       -5.35758450880741
C           -3.91402666771387       -3.23163128171403       -5.16783093332289
C           -3.00308641650801       -4.18545132189640       -4.75952150080181
C           -3.41799584955583       -5.48408046541093       -4.54095663960331
C           -4.73875110878581       -5.82680867768486       -4.72648195958448
C           -7.68457417886942       -8.00387022874606       -2.98232500273251
C           -7.25748318126336       -8.52798776345224       -1.78506376044434
C           -4.88157262888192       -9.11060724794004        0.39105196630822
C           -4.40601201255384       -9.69579607215869       -0.80091599571933
C           -3.23879974614021      -10.39911419545833       -0.82076604118441
C           -2.45011007472995      -10.49006377745183        0.32956889053948
C           -2.85739541972807       -9.92940472113642        1.51449554477907
C           -4.13431937056526       -9.30088843192572        1.58077599695089
C           -1.62421439688605       -3.80693503448117        0.31881403633091
C           -2.43367905826634       -2.93291495202961       -0.37190828127464
N           -5.60878813018687       -2.95220940587076       -2.24625876372361
C           -6.21573056070120       -1.90344379167720       -2.86777738894801
C           -7.47132345302882       -1.82754116003947       -3.48590406493268
C           -7.82945216639762       -0.65904548822925       -4.10613645848410
C           -6.96524841451724        0.44478922200651       -4.12927685940270
C           -5.73181901277012        0.39192134998023       -3.53169519932695
C           -5.35317318613910       -0.78970412574850       -2.89192217229075
C           -1.80654151211086       -0.86593829772466       -2.76187942206107
C           -0.64298567220125       -0.13793810219006       -2.65406523287366
H            0.28138551437261        1.60970077160779       -1.84814723074330
H           -1.77371795340041        2.40959369406004       -0.76090941665622
H           -3.85418339315909        1.10016776373737       -0.95490917352104
H           -4.39240920846781       -5.14569697006142       -1.97435057355731
H           -2.99391667104580       -6.71290768914479       -0.70823429540883
H            0.89355673962984       -5.58945372401348        0.38635932510317
H            2.01663588869723       -7.60343912783137        1.27821329147043
H           -2.86918759245161       -7.07783604892173        1.73633561377237
H           -1.51136191100244      -12.41300265845560        3.22491767868343
H            0.66772527921813      -13.58582928422936        3.23633947653028
H            2.72862086368116      -12.37421421024467        2.68706726895074
H            2.64968128404717       -9.97306356849124        2.11172433146331
H           -0.76129932237929       -9.92173280633765        5.07629972446680
H           -1.80683949539507       -9.61251025434813        7.27565499323698
H           -4.16112278467134       -8.92279446707115        7.42423499407836
H           -5.45798339251991       -8.55133396024400        5.38768458683729
H           -6.09319218376155       -7.53349736731246        3.71677928358660
H           -7.27310836652518       -7.04611020017356        1.63607538928675
H           -5.98552996426017       -5.72816633827370       -0.40846574396698
H           -6.67068413498227       -4.81300670108698       -2.57304199597612
H          -10.85998314075576       -6.18325999659995       -7.29156825640778
H          -10.41577454201506       -4.80738599609309       -9.29079963582760
H           -8.30442031568158       -3.56907070480105       -9.51423557869184
H           -6.59601791695476       -3.67503861146631       -7.74164454261280
H           -5.95450027905699       -2.83011645249541       -5.64714021356185
H           -3.59635819336966       -2.21373746078201       -5.32397932645974
H           -1.97037862882382       -3.91776263570397       -4.60783815904724
H           -2.70917556731836       -6.22879161158592       -4.21758411004700
H           -5.07022580652103       -6.83651255040698       -4.55868300840420
H           -8.17017355788570       -8.62995986344217       -3.71064037375640
H           -7.40682104762084       -9.57041071550283       -1.56234826461393
H           -4.97112566108921       -9.56826969761707       -1.70678486787832
H           -2.89021656217245      -10.83822328905392       -1.74110501719233
H           -1.46961327257086      -10.93039536189774        0.26858712223647
H           -0.85073931433940       -3.43597237231400        0.96859269937432
H           -2.29911341893063       -1.87172148241433       -0.26408980598662
H           -8.11644227094352       -2.68789069735021       -3.48304720467346
H           -8.78946513676107       -0.58858264599354       -4.59050791587179
H           -7.27569861875168        1.34778648659345       -4.62855510738573
H           -5.05694021319520        1.22870085037859       -3.55165650586128
H           -1.83115820463226       -1.78600315275393       -3.31838945821044
H            0.25737494040010       -0.48815059100045       -3.13175474106035
