71
 energy: -13.993283388966 gnorm: 0.000691488153 xtb: 6.5.0 (97a52f5)
C            1.18314184615489       -0.29572253907297        0.72867081474021
C            2.70211894651617       -0.04234950905948        0.73497926011177
C            2.94907480284906        1.42241307839236        1.14424083850032
C            3.37603883059953       -0.95684181949826        1.77475283060810
C            3.27245351924133       -0.34887606462911       -0.65847344561698
C            3.14843237199235       -1.62807683051882       -1.18560545986272
C            3.63884451351755       -1.93809222543058       -2.43335778548203
C            4.27514708165309       -0.97589911356937       -3.21120009995423
C            4.80952371715852       -1.25687064553958       -4.54247446117775
N            5.59904981449639       -0.40828787592640       -5.18364741034845
C            5.88338893320709       -0.97543895945875       -6.37716868771617
C            6.70878669837408       -0.46071171356187       -7.44004417471523
C            7.34653616132848        0.77489978677444       -7.31410292934484
C            8.13202955590063        1.25958608649186       -8.32584569695823
C            8.29656442849866        0.51833265171021       -9.48718327848775
C            7.67779602644672       -0.69882861373326       -9.63027490341672
C            6.86692393275035       -1.22814852821761       -8.61650261867492
C            6.19218729950028       -2.52562980852665       -8.74277397667174
C            6.31148989245480       -3.31801833062399       -9.89308132025379
C            5.66760069293411       -4.52508496974269       -9.99994130654919
C            4.87571876507357       -4.99149971972314       -8.96129368734292
C            4.73723155857464       -4.24577841931767       -7.82227659362115
C            5.38479476401981       -3.01351944340142       -7.68613513203808
C            5.24998619062591       -2.21289056085152       -6.49746980873837
N            4.55749010863708       -2.40457983438344       -5.31551408919840
C            3.72977448726111       -3.53850377775848       -4.98022572487703
C            4.29448712777992       -4.69270441181721       -4.46080944004475
C            3.50093141581769       -5.76884942130555       -4.13303800336103
C            2.12326046670687       -5.72880110119233       -4.30955897041144
C            1.27369944115628       -6.95186228380094       -3.93153596732439
C            1.69425826279065       -8.14902677819866       -4.80338642065504
C            1.49498701543953       -7.28860637323648       -2.44504403619742
C           -0.22976663977226       -6.69355996184509       -4.14969770911900
C            1.56828955517838       -4.56799353560129       -4.83648021620036
C            2.35771040600408       -3.48914605961924       -5.16761715228435
C            4.40720633782915        0.30311674531431       -2.68145467927091
C            3.91427362172743        0.61071919537603       -1.43285779097075
H            0.74492529409610       -0.06286595136336        1.69892657379148
H            0.95576284896675       -1.33668100068850        0.50198857350782
H            0.69295590923044        0.32472656650234       -0.02132836245792
H            2.54370461217407        1.61956727554128        2.13652574134930
H            2.46802474643730        2.11066412256001        0.44968344514495
H            4.01496913407652        1.64721353907627        1.17367904027041
H            3.00556759717514       -0.74608539920139        2.77775007998491
H            4.45556247705592       -0.80807047963502        1.77550246428879
H            3.18319594184432       -2.00783620566146        1.56351298860963
H            2.65714449805421       -2.39136402351747       -0.60733361910859
H            3.53557770666331       -2.93751298245303       -2.81045496611131
H            7.20850061916590        1.33692896236013       -6.40667366103968
H            8.62164113855967        2.21406803173595       -8.22094514284728
H            8.91485070742772        0.90314309493165      -10.28198289774671
H            7.82326647470665       -1.25144987107695      -10.54036728287321
H            6.91764612627376       -2.97906879252710      -10.71313909023860
H            5.77525501960651       -5.11503742914368      -10.89573485676947
H            4.37067329315770       -5.93948670483454       -9.05192489299774
H            4.12255395076196       -4.60488074801221       -7.01825106305073
H            5.36074685802934       -4.73024276086644       -4.31949819812942
H            3.95696593943990       -6.65818646803305       -3.73404662832660
H            2.74240814675041       -8.40162653574973       -4.64843447139741
H            1.55810681335341       -7.92211273941061       -5.86056978062165
H            1.09937629781056       -9.03127552291283       -4.56791301870611
H            2.53486452077702       -7.54349241585499       -2.24520777786254
H            0.88134277060067       -8.13656388355913       -2.14153231652357
H            1.23123052156303       -6.43943228902069       -1.81499058123456
H           -0.44457720991054       -6.48071108768850       -5.19658513536621
H           -0.57450920867413       -5.85375640455011       -3.54671031984222
H           -0.81659447004615       -7.56674966874426       -3.86497415125890
H            0.50589060423845       -4.50177959202288       -4.98941329456201
H            1.92290041620504       -2.59120506189691       -5.57107355145241
H            4.90353547315973        1.05362435177545       -3.27216829949232
H            4.03155248082974        1.61208975899872       -1.05865631400418
