113
 energy: -22.931053800421 gnorm: 0.000718318939 xtb: 6.5.0 (97a52f5)
C           -0.72112153762868        0.87759194657118        0.85770016735621
C           -1.85037838214790        1.08293788816440        1.62607143506668
C           -3.06808674240345        0.59562977925792        1.20653440117836
C           -3.16926743150138       -0.10845858310961        0.01346726242613
N           -4.43895656917141       -0.64440145442169       -0.41274431249041
C           -4.91001049013512       -1.97500592293144       -0.40961061228264
C           -4.20329012069885       -3.13063559872670        0.13077559799610
C           -4.71662456657626       -4.40746986369835       -0.08768657626301
C           -4.09275538664872       -5.51946667273689        0.42366923449512
C           -2.92497910283045       -5.40037886616687        1.17809139526932
C           -2.27172982102528       -6.58591141714165        1.76748439815368
C           -3.02974997271450       -7.63891059610873        2.28510774936030
C           -2.41666266997356       -8.69521202762149        2.91750584922922
C           -1.07012012047924       -8.72199183798585        3.04160013626315
C           -0.28937694081626       -7.73129190412915        2.52344790205121
C           -0.88273011764380       -6.65545378732262        1.89488608849932
C            1.16411895855966       -7.76277626933183        2.88215911164212
C            1.99510130057406       -8.97371094972358        2.61371220983491
C            1.53627502643691      -10.27793028349396        2.60611508237039
C            2.42602699612597      -11.31556968178177        2.40874026560460
C            3.76840149258847      -11.04131906286215        2.22775756819842
C            4.20957564514043       -9.73479199155739        2.24925034489440
C            3.32868211708178       -8.72818952777665        2.44441799437523
C            1.53472649619097       -6.94937024376861        4.06474203653761
C            2.47970868614640       -5.94097918181759        3.97574490665240
C            2.76676410206571       -5.15730550466672        5.07777298430469
C            2.09758395597396       -5.37563337432483        6.26632320076640
C            1.15969279562446       -6.37942155784394        6.33832017210843
C            0.90681551760700       -7.14197691041916        5.25389095717224
C           -3.81536551796438      -10.00704656481031        6.51444880909945
C           -2.54721766021702      -10.44311661533942        6.43527116055967
C           -1.48276184393738       -9.69057456171725        6.05837250734175
C           -0.23841579348423      -10.08250829263553        5.87686138711981
C            0.30005146792900      -11.34795734680812        5.99130926673834
C            0.25446837614976      -12.19871477743727        7.04737911454856
C           -0.29152687585378      -11.87981051957241        8.23061594754124
C           -0.40009118399719      -12.64134607357769        9.31626222272679
N           -0.88718029187054      -12.25100835927088       10.50533202591579
C           -1.27981413318208      -11.13341708283976       10.77259559267777
C           -1.67027998807146      -11.02038692054870       12.02999710686272
C           -2.04496367805210       -9.88986257043964       12.69610164149263
C           -1.99780280230445       -8.57819128357110       12.27680648209566
C           -1.52351983638519       -8.02057296009329       11.08058693685068
C           -0.99080578636773       -8.69232435587178       10.01205179277103
N           -0.52496283741509       -8.16229551704028        8.87171420487036
C           -0.45415488688959       -6.97719053547891        8.48269016508088
C           -0.84086338817177       -5.83497190186759        9.07032768385785
C           -0.24780248345157       -5.03558717018073        9.98223360195130
C            1.01151942797686       -5.11846245890492       10.55315717361552
C            2.05293999530044       -5.99496877161287       10.29025625286402
C            2.06285122463676       -6.95401539338653        9.36072680943352
C           -4.08737943255389      -10.80543993497715        9.70298141950895
C           -4.24125494315943       -6.43387296727523        9.48628890322618
C           -4.06708686241435       -5.36747544832536        8.77445712174585
C           -1.79763017092933       -5.56932292449849        5.09586100860600
C           -2.90199474618515       -4.88425830920684        4.85089421901247
C           -4.18345590240968       -5.34017024017321        5.01333541894575
C           -4.61488241903137       -6.60077703952205        5.46778357824239
C           -3.86876093945954       -7.64938516623255        5.81934249503958
C           -4.38657886650081       -8.81846628684596        6.24164472189413
C           -2.41198512280693       -4.12127528102215        1.39792159509326
C           -3.03914252916727       -3.01176634532227        0.88791215052197
N           -6.10908912196235       -2.06960439885634       -0.95692686972596
C           -6.47184168836156       -0.80877966358630       -1.32858850498010
C           -7.64035450368306       -0.34670725041877       -1.94992394304206
C           -7.75743248360966        0.99159041691769       -2.22467735242429
C           -6.73488746799620        1.89307174830437       -1.89705706748875
C           -5.58322885782712        1.46404043261235       -1.28909718701084
C           -5.45190837664286        0.10456161950942       -1.00080832346890
C           -2.02889317445572       -0.30357423465565       -0.75567013678368
C           -0.81259460987832        0.18557926824622       -0.33413663186559
H            0.23145141631933        1.25897553936615        1.18741796745478
H           -1.77872713415306        1.62441867964143        2.55516490485619
H           -3.95484134473878        0.74426843608468        1.79776484743879
H           -5.61936358216442       -4.50543232638502       -0.66536163907732
H           -4.49937795497408       -6.49816343762729        0.23690473494750
H           -4.10346060209630       -7.59546403816096        2.22571913488738
H           -3.00122114218811       -9.48985311131665        3.35011370874216
H           -0.26761739187841       -5.85313104782200        1.52960587010589
H            0.49237742873148      -10.47983812957838        2.76521942321559
H            2.07513579814222      -12.33446970709050        2.40101148972975
H            4.46863637260712      -11.84611441183704        2.07358043670936
H            5.25321604412777       -9.50473820801708        2.11478451180190
H            2.98101470512053       -5.77229294352472        3.03795904979739
H            3.50299520606018       -4.37361728115314        5.00723131833439
H            2.30228776853995       -4.76399699337483        7.12980489757606
H            0.59079372219539       -6.55061212705245        7.24190937685931
H           -2.36764182399365      -11.47530479856263        6.68303543927865
H            3.48516553511664      -11.36545336187000        5.35474843375523
H            0.69548248258203      -13.17423534005090        6.93124648145827
H           -1.79841568171918       -7.01065874552359        7.18995727581915
H           -2.42060695670559      -10.06232863564276       13.69320423775166
H           -2.36956729922246       -7.85700791110448       12.99077288607040
H           -1.56807648053245       -6.94955409311170       10.99229340797010
H           -0.96695424363541       -9.77093265802739       10.12310636441575
H           -0.86495393675238       -4.21637133863286       10.32062720424496
H            1.21900807778672       -4.37882703507940       11.31377125942010
H            2.94928348640082       -5.87873786396261       10.88158414938389
H            2.86976268033865       -7.60191300546567        9.17728808553736
H           -3.13055675572105      -10.92001143950600       10.05459468957376
H           -4.42663001846219       -6.41098245616299       10.51993995657780
H           -3.87870069661714       -5.39758503120976        7.74188966748050
H           -2.76924078268310       -3.87706537697709        4.48713415858071
H           -4.96891450098096       -4.64257296047963        4.76218653497781
H           -5.68271649132381       -6.74333785440790        5.53716205395573
H           -1.52655095361783       -4.00844071673144        1.99920492741943
H           -2.63809362925529       -2.03639250128211        1.08731651728937
H           -8.41867283165113       -1.04551137673522       -2.19895287801980
H           -8.65104336791534        1.35871542949364       -2.70201379990044
H           -6.85719419196738        2.93855550948265       -2.12750400708062
H           -4.78997766320009        2.14348126933052       -1.03308725941257
H           -2.11389148041042       -0.84900618875618       -1.67936872647239
H            0.06847578530166        0.02668511585406       -0.93410855902451
