206
 energy: -46.288958415691 gnorm: 0.000596091182 xtb: 6.5.0 (97a52f5)
C           -0.31414717508555        0.60940098184253        2.30057074681123
C           -0.55134803915769        0.76280531515255        0.94880155532473
C           -1.80605868197094        0.51812140243055        0.43672289040382
C           -2.83786214552632        0.11498865571066        1.27350872915373
N           -4.15433023073043       -0.13803375423410        0.73853396176997
C           -4.68010356151711       -1.34500237646282        0.23989128163142
C           -3.99604251266267       -2.63055498775163        0.16647836377721
C           -4.68016425424287       -3.72875370996042       -0.35448339900638
C           -4.08630234538030       -4.96359408938458       -0.42780058574356
C           -2.78045872592280       -5.15335064404576        0.02123521566778
N           -2.17308432722137       -6.44977909571003       -0.02580859326891
C           -2.50151738492648       -7.34939673090922       -1.09333112140084
C           -2.73440674048108       -8.70054902749325       -0.84270641515755
C           -3.09251455170457       -9.55203213811897       -1.85864637282618
C           -3.22008797918815       -9.08991877519995       -3.17071973089622
C           -3.63413552521613       -9.99712902503524       -4.26103839037190
C           -4.65297287429206      -10.93260685083426       -4.06554787209455
C           -5.06511930470807      -11.75046206689250       -5.08825504321353
C           -4.46894467543524      -11.67546197638345       -6.34571675018264
N           -4.92377955999995      -12.50775940368427       -7.42183344103435
C           -6.32941727417573      -12.70174012709916       -7.61920098876971
C           -6.82721123642637      -13.90661891111630       -8.11253231274350
C           -8.17245800072423      -14.07856138175840       -8.32091811762620
C           -9.07944266152832      -13.05478138598514       -8.04379851665867
C          -10.51564929599859      -13.18023937060477       -8.26280197927001
N          -11.35474514360343      -12.18681041712575       -8.00768622770891
C          -12.58860915030129      -12.63127537765270       -8.32976695854297
C          -13.84288096500541      -11.92759556312075       -8.24674733575985
C          -13.89348583389285      -10.61374618824074       -7.77792573833197
C          -15.08739497814983       -9.94708175158200       -7.70299620020304
C          -16.25727796058164      -10.58091569776993       -8.09574508951069
C          -16.22817123963963      -11.87272171684176       -8.55950988545297
C          -15.02568441393665      -12.58747499502932       -8.65072770156597
C          -14.96323158999516      -13.96793490417178       -9.14334284722570
C          -16.10836458439610      -14.66374825553477       -9.55483433268699
C          -16.03467985688742      -15.95493257686629      -10.01308113994073
C          -14.81237399440249      -16.60660416405112      -10.07943727691648
C          -13.67277556439149      -15.95898153589029       -9.68678755001358
C          -13.71924220480834      -14.64251342133943       -9.21647103092217
C          -12.53220191318739      -13.94338921252468       -8.80090731987811
N          -11.19703925837679      -14.30655486558955       -8.76146385395302
C          -10.65158866442394      -15.58276961814091       -9.15741884112331
C          -10.25932163795751      -15.80173054671342      -10.47102283916604
C           -9.74140924494053      -17.02080599800043      -10.84802724135465
C           -9.61132250229949      -18.03390837095673       -9.91855369716208
C          -10.00169183528942      -17.82613345282821       -8.61024732420915
C          -10.52014350731606      -16.60807628769703       -8.23076483400473
C           -8.57794232696824      -11.85420799764199       -7.54152346810016
C           -7.23316816146846      -11.68018419189374       -7.33192854822335
C           -3.97636385359733      -13.08636223215678       -8.32632697157837
C           -4.28157994121092      -13.25049010142914       -9.67639501200285
C           -3.37058045109515      -13.80153464287008      -10.54136263284471
C           -2.11372864435913      -14.21221276343358      -10.09570299805944
C           -1.11452076035342      -14.80848230141691      -10.97475102371394
N            0.04277705703204      -15.26515781504294      -10.51858982189897
C            0.71836536531478      -15.74014205147257      -11.58730386257415
C            2.02528665722753      -16.34518301043862      -11.62344545475616
C            2.76653610478063      -16.51132979220610      -10.45235095728646
C            4.00696304156513      -17.09048343940514      -10.49008140525505
C            4.53307561594624      -17.51624381564732      -11.70108563035391
C            3.81981419673029      -17.36109729491246      -12.86376019247446
C            2.54743740158186      -16.77271100691434      -12.86536752106586
C            1.76247340843225      -16.59316141708701      -14.09165621329879
C            2.24036770933221      -16.99456337240630      -15.34677408242762
C            1.49567893557382      -16.81788690303130      -16.48555614034831
C            0.24063206790317      -16.23182070791765      -16.41871995674367
C           -0.25903943866262      -15.82773856109782      -15.21071905693099
C            0.47853541471992      -15.99656799202359      -14.03429616625653
C           -0.02819478393023      -15.57661559021651      -12.75468591746375
N           -1.21481682823924      -14.97778828990641      -12.36865671981107
C           -2.30138460315934      -14.60483290582144      -13.24241357318683
C           -3.30633234253427      -15.51486032168819      -13.54173475086993
C           -4.34091933659435      -15.15826488810762      -14.37780064622961
C           -4.38189747668160      -13.89109562309764      -14.92535506748748
C           -3.38491086492146      -12.98036075427899      -14.63584491399402
C           -2.34948593137274      -13.33430785356858      -13.79967305780964
C           -1.81159370147654      -14.04530671894151       -8.74420384928787
C           -2.72088135534171      -13.49251836260548       -7.87747463705995
C           -3.44125257497869      -10.75421878514234       -6.54053867056576
C           -3.03617132821607       -9.92781090961623       -5.52157885487719
C           -2.96905824307880       -7.73862713409737       -3.42047596012395
C           -2.62255979407842       -6.88577309617930       -2.40201521362619
C           -1.28287722864031       -6.86845964805841        1.01494093008931
C           -0.20598379612924       -7.70777303878384        0.73511657945073
C            0.65672242952873       -8.09905719751407        1.72752989068195
C            0.47841561933376       -7.67197795318943        3.04399609349525
C            1.36848024293497       -8.05840532335519        4.13239275839873
N            1.12100051496201       -7.73484038613391        5.39333389627877
C            2.13882492691841       -8.23498022297324        6.12669438319080
C            2.33762236758942       -8.15764407953192        7.55130847748874
C            1.40972941940722       -7.50684232684781        8.36619690662748
C            1.60122902917650       -7.43674636761402        9.72039271975853
C            2.72598581545030       -8.01658646320266       10.28901683066490
C            3.65019035937300       -8.66069898958864        9.50435908210883
C            3.48897267276521       -8.75302668110101        8.11489362540563
C            4.46003711260114       -9.43344246688346        7.25105420567603
C            5.61851653253630      -10.03426365947032        7.76274248747022
C            6.52001016511077      -10.66367245815674        6.94190198265883
C            6.30223802629643      -10.71920486202472        5.57350520087613
C            5.18183117104256      -10.14462479868615        5.03799751529091
C            4.24588289594948       -9.49798545229749        5.85183749519380
C            3.06146995145926       -8.88778955261434        5.30847823819600
N            2.57123675446114       -8.78085034415342        4.01842674571229
C            3.20669116944629       -9.28183666111096        2.82330492286927
C            2.97559132942865      -10.58276132572349        2.39677525755398
C            3.58746018620380      -11.06035877654186        1.25923495209029
C            4.43742434352071      -10.24564122608587        0.53735082796023
C            4.67536125863605       -8.95122015341963        0.95572239503961
C            4.06423579692535       -8.47088310729588        2.09252964155976
C           -0.60778467791074       -6.84251785197937        3.32216929786298
C           -1.47008864345212       -6.44751216599760        2.33054914880047
C           -2.08965907600029       -4.05605025980741        0.53256181049086
C           -2.68504504093200       -2.82221848946995        0.60425270959753
N           -5.93121548367966       -1.19025017256422       -0.16830214240759
C           -6.25136126638422        0.10322992348175        0.05061219736213
C           -7.49606900761638        0.77496369052885       -0.22214355130223
C           -8.56999576552214        0.08456227605992       -0.78664011179762
C           -9.75139482726324        0.72692868537230       -1.04559309994360
C           -9.88397864923842        2.07474684508173       -0.74483372353476
C           -8.83960715767174        2.77084310240297       -0.18858081451802
C           -7.61520631007388        2.14804366220187        0.09086854672904
C           -6.48199942230956        2.86552622226270        0.68513037909192
C           -6.55353723832819        4.22584917410598        1.01546157880766
C           -5.48526171291974        4.88403416405160        1.57053540629184
C           -4.29887651948465        4.21045604596211        1.81919105596793
C           -4.19196555814401        2.88177835423775        1.51023808990295
C           -5.26554251443493        2.18644617355044        0.94419413911646
C           -5.17446347102464        0.78911387980896        0.61324028789222
C           -2.59095399819880       -0.03356430944770        2.63155030672858
C           -1.33527500815938        0.21169311065427        3.14105362393455
H            0.66850274637100        0.80049591141587        2.69991640348474
H            0.24609137501732        1.07355736792861        0.29377381750308
H           -2.00581151300580        0.63377053531054       -0.61431780771149
H           -5.69156809891182       -3.58882804124415       -0.69423378491727
H           -4.62912259630644       -5.80683111899235       -0.81743695391468
H           -2.64791655614520       -9.06186973490634        0.16714276186037
H           -3.27107888596432      -10.59295647065627       -1.65157711853644
H           -5.13214974372481      -10.99008023062498       -3.10360071267019
H           -5.85516878847772      -12.46417645660663       -4.93209007011771
H           -6.13801853634297      -14.70627466729425       -8.32087552066902
H           -8.53215178455079      -15.01355262007178       -8.70411163372365
H          -12.97651230571793      -10.13692037042091       -7.47799018419331
H          -15.11882261308804       -8.93270749856416       -7.34028293009731
H          -17.19510511755951      -10.05302510914034       -8.03565836344070
H          -17.14977591763369      -12.33830299486188       -8.85702638777054
H          -17.06811684334303      -14.18228939572635       -9.51352819986732
H          -16.93061514874386      -16.46747831603859      -10.32363072417925
H          -14.76136965921117      -17.62098511722430      -10.44011280460098
H          -12.72576413036308      -16.46246285177543       -9.73793464219941
H          -10.36697233811322      -15.00330477888573      -11.18441073008839
H           -9.43764845931208      -17.18380308157002      -11.86913795196042
H           -9.20534674486350      -18.98745409826029      -10.21439028468699
H           -9.90038371614290      -18.61717173245236       -7.88532320222499
H          -10.82847245006070      -16.43165116913557       -7.21498263792590
H           -9.27074247652666      -11.05964407118039       -7.32548210862827
H           -6.85735631885635      -10.74438565059545       -6.95702273326189
H           -5.24222173572671      -12.92453401461678      -10.03503125530789
H           -3.62930361567314      -13.92030108657026      -11.57545687280568
H            2.34296357630559      -16.17633346567887       -9.52148706950297
H            4.57336051036890      -17.21610768380685       -9.58183920937613
H            5.50931194790476      -17.97243388720202      -11.72684854842599
H            4.25192410949079      -17.70081724197984      -13.78707122798816
H            3.21016646927617      -17.45028534729756      -15.42705473799588
H            1.88670653592954      -17.13507216485796      -17.43861668137236
H           -0.33901770461171      -16.09522441218403      -17.31705848569615
H           -1.23033865051447      -15.37310267661771      -15.15801301085527
H           -3.26085432096143      -16.49892109543954      -13.10861639735086
H           -5.11864396651727      -15.86896950652660      -14.60488325725385
H           -5.19207485979723      -13.61280840736099      -15.57940205676504
H           -3.41697532337682      -11.99175914795859      -15.06381238016270
H           -1.56586691912308      -12.63517870600371      -13.56485600632193
H           -0.84534417089376      -14.36195131740059       -8.39198258383178
H           -2.47929738672704      -13.37617669195223       -6.83550957258547
H           -2.98241594739269      -10.68837976127398       -7.51160592384263
H           -2.24187293319376       -9.22026690189753       -5.68512410601715
H           -3.07407514086487       -7.36449166555263       -4.42409721320755
H           -2.43707281475667       -5.84467737797022       -2.60119866698721
H           -0.05325411553584       -8.03407625527581       -0.27878072761360
H            1.47919308944414       -8.74503329557216        1.48893850063651
H            0.54262939405694       -7.06294177436078        7.90875536870709
H            0.88041844441093       -6.93301801915091       10.34346238714054
H            2.87332656805992       -7.95966322834085       11.35523874867392
H            4.51171444345651       -9.10059561248713        9.97222623487149
H            5.81185314035459      -10.00536458378712        8.81934646203265
H            7.40328507058202      -11.11779017313461        7.36076405802778
H            7.01474220929407      -11.21422538129987        4.93398783765084
H            5.01259764226437      -10.18649893379868        3.97852118877318
H            2.31238386789170      -11.20672498679971        2.97026312709841
H            3.40334881237981      -12.07089521098191        0.93297035906934
H            4.91571620396885      -10.62044696824809       -0.35279006193832
H            5.33905247723269       -8.31595786110128        0.39226905519660
H            4.23989420675944       -7.46449785516768        2.43061078827563
H           -0.75688502236225       -6.51554636376299        4.33648350921359
H           -2.31004560899770       -5.81553086665920        2.55997219210002
H           -1.07544217049189       -4.19080951710468        0.86580974596071
H           -2.13530454108301       -1.99302862908176        1.00496443407210
H           -8.44995399174195       -0.96048808482689       -1.01386807924357
H          -10.57612860294175        0.18757589410020       -1.48196057635563
H          -10.81500316307790        2.57737372000567       -0.95052179466014
H           -8.97100660971295        3.81391114197725        0.03361964942111
H           -7.46107190315469        4.77180387495019        0.83394082869875
H           -5.56651974061073        5.93047644462125        1.81583437907442
H           -3.46324811546579        4.73315235796678        2.25530625662968
H           -3.27395664894541        2.35911122711514        1.70267145274557
H           -3.39642110605735       -0.34388361931521        3.27413461345879
H           -1.14978811152251        0.09297537687718        4.19602175396561
