99
 energy: -22.145538164709 gnorm: 0.000886393158 xtb: 6.5.0 (97a52f5)
C           -3.04162668302322       -1.45280199825213        3.29199647968784
C           -4.18675567846135       -2.16693885419159        3.00040104386148
C           -4.71649972409868       -2.13247561690751        1.72957359194953
C           -4.10516950946498       -1.38097974273740        0.73483452412692
N           -4.62135089434165       -1.39546725618357       -0.61386636757568
C           -4.27057065238730       -2.25571413282119       -1.67033235935582
C           -3.28632483609292       -3.33400489143352       -1.61314704857471
C           -3.06306356135389       -4.12765924892506       -2.73643601355182
C           -2.14887761802143       -5.15952109167602       -2.70274278712573
C           -1.44121237045803       -5.42421451773795       -1.55073381556851
C           -1.63591792023898       -4.64761044506596       -0.40546401025150
C           -0.90598823028386       -4.90836053157395        0.85883251896264
C            0.50637990559368       -4.80576063567750        0.91156609878843
C            1.26327932987047       -4.45722170120562       -0.23448983048062
C            2.62028612644365       -4.37690234300383       -0.18959844916617
C            3.30333829687595       -4.64130548547156        1.00364429474440
C            2.61376527155729       -4.96119641985732        2.13154675038495
C            1.19860246951824       -5.03502182452078        2.13553835380324
C            0.47951307620488       -5.33952569144281        3.31856390712700
C            1.19730968754131       -5.59899914584601        4.59109115165936
C            1.98350181800271       -4.61637798665691        5.20066342145188
C            2.64566501008905       -4.87806553577414        6.38003944553285
C            2.53742888096905       -6.11526820619996        6.97831056215558
C            1.75819166709787       -7.11169792374411        6.40047733390388
N            1.63099502445104       -8.40311511609452        7.01640123256408
C            1.31666229335875       -8.65683720413852        8.36767758056105
C            1.06800915685746       -7.78633001075643        9.42829453258220
C            0.76514918015435       -8.31414562189584       10.65956097415222
C            0.70040291071115       -9.69627607648648       10.85484736485683
C            0.93211393176677      -10.56841858779213        9.81790607295479
C            1.23984923480518      -10.04675897935251        8.56133460858059
C            1.51459373272278      -10.67343267503077        7.28868500092420
C            1.57710665225793      -12.00976837535563        6.89347969986893
C            1.87580487539166      -12.29608484632685        5.58256852623475
C            2.11781791844149      -11.27417715605278        4.66076448350586
C            2.06025072287128       -9.95423255357867        5.03564255095062
C            1.74929167985916       -9.64559424370182        6.35965733973136
C            1.09840949146517       -6.84181174652210        5.21312549964535
C           -0.93469241585018       -5.41984216815433        3.27020761642595
C           -1.69754637428338       -5.68689971074385        4.43445486681946
C           -3.05332945756119       -5.78315193504698        4.38707392145010
C           -3.72906616686965       -5.62209223876101        3.17182832060942
C           -3.03609137215141       -5.34918599162780        2.03395039078268
C           -1.62462922796620       -5.21916671367930        2.04082849080143
C           -2.55864910183360       -3.60882745399995       -0.46479709083757
N           -4.96588351354251       -1.98534247581058       -2.76440036844496
C           -5.77500667637883       -0.94684277762402       -2.45729540780041
C           -6.72295008646245       -0.26921336949863       -3.30408023300982
C           -6.90490577647256       -0.66511914078010       -4.63054518403669
C           -7.81057930704215       -0.02192597977924       -5.43094303459142
C           -8.55486855283726        1.03243001793602       -4.92159518542195
C           -8.38982500028101        1.43691051683351       -3.62023587972761
C           -7.47253913443108        0.80342223694500       -2.77043730853261
C           -7.27442040332511        1.21445885597963       -1.37551808035510
C           -7.98990061676790        2.27494479841745       -0.80278571746468
C           -7.78776738325051        2.65195881865716        0.50084980424199
C           -6.86262889554260        1.98397809010703        1.28899168270110
C           -6.14719828367561        0.94221500567705        0.76467896001838
C           -6.33356433649801        0.53807984515762       -0.56114885526466
C           -5.58816947946045       -0.55241122591074       -1.13227417851886
C           -2.96240365370163       -0.65432108510767        1.04146172934729
C           -2.43257769197959       -0.69403677433389        2.31210999323789
H           -2.62226654686272       -1.48865344592996        4.28417946222791
H           -4.66099654768321       -2.75936872427046        3.76565257577771
H           -5.60007449680851       -2.69587288413853        1.48510743966985
H           -3.62194216773864       -3.92028120997511       -3.63235739224525
H           -1.99109211329691       -5.76463576787425       -3.58044334727086
H           -0.73934294097743       -6.23956571650527       -1.51602032491036
H            0.74667064292513       -4.24532409253806       -1.15355054302131
H            3.17544827636181       -4.11136434509573       -1.07445318059160
H            4.37947165252899       -4.58622552172136        1.02554098112973
H            3.14729170499799       -5.16767676158523        3.04217412380893
H            2.05816632085907       -3.64753861660334        4.73753439863427
H            3.25162509585619       -4.11272129134354        6.83669356964803
H            3.06501518589806       -6.33044622894469        7.89093831070765
H            1.10591495006012       -6.72385907830721        9.26822653274865
H            0.57193221945174       -7.65278491680941       11.48822577665564
H            0.46118658770963      -10.08285950472488       11.83190366211808
H            0.87754741427504      -11.63359721325079        9.95798385131376
H            1.39310393996071      -12.79028924679931        7.61049873896905
H            1.92649691534797      -13.32325423602270        5.26060851087282
H            2.35530156377331      -11.52676008752573        3.64036072900692
H            2.25871584275898       -9.16379297579444        4.33427711374006
H            0.48919064960042       -7.60630812377876        4.76743143137757
H           -1.18726999493041       -5.80930782128085        5.37327236909501
H           -3.61244094863455       -5.98857053719395        5.28524340895069
H           -4.80277512002962       -5.71121824748646        3.14219650086955
H           -3.56493539760405       -5.23237308841179        1.10491085388451
H           -2.69894866712699       -3.01465896120721        0.41464511933828
H           -6.32002120384812       -1.48546706088359       -5.00894050691374
H           -7.94609096906136       -0.33328390301550       -6.45380808622152
H           -9.26742073152056        1.53600190372608       -5.55447556015621
H           -8.98000493119241        2.25629200421674       -3.25282605305428
H           -8.71322003786480        2.80921551569650       -1.39103836975688
H           -8.34935691511570        3.47261419634372        0.91681662125116
H           -6.70821628867232        2.28499258063969        2.31235318817480
H           -5.43001909934281        0.42396843011194        1.37326654162467
H           -2.49123556019410       -0.07675556168733        0.26531464320614
H           -1.53946604229116       -0.13558418501753        2.54021339327609
