53
 energy: -11.797720046612 gnorm: 0.000839710042 xtb: 6.5.0 (97a52f5)
C           -1.02967405702367        0.21098173577090        2.39312830482852
C           -1.28806350267302        0.77406437848801        1.15913809652555
C           -2.13011530514791        0.13874071054340        0.27375107917065
C           -2.72629698105783       -1.06725226663034        0.61476837338695
N           -3.61901447982526       -1.72435160927528       -0.30976844240085
C           -3.26884346550495       -2.77249068749526       -1.17506442694587
C           -1.93439059083543       -3.40288918882215       -1.18220783052293
C           -0.94400771464659       -2.95061661072137       -2.02909032727522
C            0.32922340677048       -3.51652000724772       -2.01535820491609
C            0.62932622234604       -4.53301764724678       -1.15538811310344
C           -0.34449007974718       -5.03406594921162       -0.26364193204022
C           -0.06550420508317       -6.07988833089748        0.64480621850009
C           -1.02810582097939       -6.53946945207185        1.49350514574712
C           -2.31216246262447       -5.98416645284301        1.47613674136977
C           -2.61260415105272       -4.97555317483431        0.61048901314713
C           -1.64129715823490       -4.47093391135505       -0.27649804571873
N           -4.29872307000021       -3.15979366865039       -1.91706981964126
C           -5.33446457399391       -2.36694099792007       -1.56432067839737
C           -6.68176275130146       -2.36818576561013       -2.07499752076585
C           -7.06060037589370       -3.25702664034743       -3.08239112514857
C           -8.34098052391205       -3.25443570095338       -3.56747029774551
C           -9.27090244425941       -2.36144030587391       -3.05503445177598
C           -8.91793560721921       -1.48028568523997       -2.06325279227369
C           -7.61785754084671       -1.45357725331786       -1.54049556820179
C           -7.21430201394573       -0.52603474817132       -0.47663660827706
C           -8.10993856110534        0.38421271751848        0.10066443230379
C           -7.71609392648821        1.23874703895378        1.09967153283312
C           -6.40955445469218        1.22085916400673        1.56462039667933
C           -5.50650509925734        0.34662294694677        1.02400976339470
C           -5.88296249427884       -0.53378721497729        0.00523541556296
C           -4.95153720715802       -1.46769415184642       -0.56636618787419
C           -2.45586127785235       -1.62853973113285        1.85488467877856
C           -1.61321486595215       -0.99193229081810        2.73855795698625
H           -0.37074639259937        0.70842083690146        3.08584045175168
H           -0.83058256038905        1.71139685965478        0.88803142354062
H           -2.34142775222876        0.56707942678734       -0.69032134380500
H           -1.16894441922281       -2.14290171297965       -2.70390394300185
H            1.08312021718351       -3.14380724069836       -2.68935068563588
H            1.61493177949020       -4.96535594171929       -1.14716755568109
H            0.92124096227093       -6.50961125702032        0.65699411652157
H           -0.80310829967284       -7.33719910397731        2.18233550087561
H           -3.06486633772415       -6.35822963785405        2.15071834138003
H           -3.60045654573603       -4.55040324633728        0.58916826498568
H           -6.32671955115120       -3.94288852795252       -3.46883730855491
H           -8.62668263217533       -3.94379510177905       -4.34506991613850
H          -10.27771618009816       -2.36136368951856       -3.43982448523325
H           -9.65875362489525       -0.79941044810241       -1.68600085177953
H           -9.12870131905356        0.41843650775280       -0.23939344290913
H           -8.42527573713800        1.92829800994090        1.52788297308781
H           -6.10696720141253        1.89441626932748        2.34977389916598
H           -4.49360932812767        0.32788431079587        1.38111612759941
H           -2.91415707787783       -2.56711494223398        2.11165366151487
H           -1.40992086593259       -1.43323061969254        3.70032999610988
