78
 energy: -16.445088217917 gnorm: 0.000661703064 xtb: 6.5.0 (97a52f5)
C           -0.09830171131528       -0.35653127825943       -1.45097993899665
C           -0.79008085899869        0.62500371245446       -0.77027524142236
C           -2.15556968522886        0.51555801559875       -0.60310424287427
C           -2.83468154128669       -0.57323497354336       -1.11464530258413
N           -4.24744637779076       -0.70731219767134       -0.94156061725487
C           -5.54342735707474        2.15563438912476       -0.33542533463319
C           -5.26193921922825        0.69108669656523       -0.73236722333264
C           -4.87063011881138       -0.20673562447199        0.64491091675087
C           -4.80578758392488       -1.74321349238703        0.02866524251737
C           -6.33098681499539       -1.77343262534438        0.15119461279136
C           -8.27235419883422       -1.96713295461999       -0.76802618164360
C           -9.27282067287517       -1.09807175010680       -0.08429469889765
C           -8.97740139902549       -0.15129250525228        0.86085112405816
C           -7.74163210223272        0.12362637447108        1.39165162722122
C           -6.49655722424265       -0.68357931755359        1.26955121025005
C           -5.27204769558350       -0.10573541533178        2.26189410272457
C           -4.62116380884864       -1.06237195073805        3.22634886426930
C           -4.35789754470261       -2.41115235387814        3.08897304946104
C           -3.75895313466449       -3.09375650584164        4.13207175170211
C           -3.42550870506404       -2.44057087928476        5.30775822050056
C           -3.68791924534711       -1.09454301993583        5.46188224592236
C           -4.28760669080816       -0.40813999103664        4.41672381160067
C           -4.71164455740455        1.00617705396435        4.30133017946894
C           -4.62698319314034        2.04259954989330        5.21862401806371
C           -5.13290849134892        3.27796221440073        4.87303590270299
C           -5.71616427409511        3.47468749835982        3.63283159178178
C           -5.79928808700086        2.44156974285415        2.71780436360138
C           -5.29594981596947        1.19669656926374        3.04078943512280
C           -6.55303838137272        0.25443293271945       -1.52973719175554
C           -6.18833972275375        0.23306149968226       -3.01010828567990
C           -5.93035484292524        1.30677450584666       -3.83686926933364
C           -5.55929981545078        1.07759164845316       -5.14825155134479
C           -5.44080835736541       -0.21581366847137       -5.62808905874417
C           -5.69036916517390       -1.29538466629006       -4.80638241489248
C           -6.06644559160725       -1.07274156789715       -3.48659152133394
C           -6.37664318612113       -2.04643594818633       -2.43788072663708
C           -6.18204225122249       -3.37085507832849       -2.55768424368920
C           -6.46130567992242       -4.38974336821665       -1.57064928747196
C           -7.00756431883717       -4.20696410256049       -0.36971144801386
C           -7.42528667100056       -2.88569033869548        0.18441750665507
C           -6.92422004047996       -1.29305250397634       -1.22288016226752
C           -7.53941376391303        1.39007926388467       -1.26416441489903
C           -8.83019108075623        1.56847760788441       -1.68916701766955
C           -9.46895791236001        2.77549693554273       -1.42928691170188
C           -8.80392771340060        3.81087371674810       -0.77558452706353
C           -7.49859910495785        3.67420103153022       -0.37819525178519
C           -6.82291563771604        2.45092410977980       -0.62326942433069
C           -2.13859594007281       -1.55107442660537       -1.79787507189702
C           -0.77294150750686       -1.44532661186576       -1.96547548215090
H            0.96836689190009       -0.27246343961791       -1.58145885086460
H           -0.26501608108134        1.47681521115880       -0.36968688955791
H           -2.70485731976857        1.27529250326523       -0.07447477432018
H           -8.72015193890934       -2.54657470439443       -1.59073830732915
H          -10.30080994285835       -1.20846427451840       -0.38779069788184
H           -9.79678322951125        0.46759938532689        1.19587723593670
H           -7.68387795693816        0.93502993353584        2.09378918463747
H           -4.62415924996629       -2.91910430960638        2.17946422677789
H           -3.55115773862559       -4.14626296556359        4.02854950423064
H           -2.96073927444351       -2.98955987774885        6.11043030580642
H           -3.44076239329026       -0.57764225152832        6.37249256836262
H           -4.17725287903664        1.87227765711200        6.18106072938729
H           -5.07776970719996        4.09433023154706        5.57462262313054
H           -6.11159525034355        4.44420588684531        3.37696609933371
H           -6.25680831863343        2.60475590976464        1.76162874750800
H           -6.01452474223040        2.30711617906655       -3.44971047577487
H           -5.35777711649063        1.91189817117974       -5.80005767749334
H           -5.15008888145631       -0.38069034724004       -6.65278934599673
H           -5.60093552922657       -2.30034864067275       -5.17903660648372
H           -5.76551099480816       -3.71530009215216       -3.48883370808720
H           -6.19914904862761       -5.39899225037844       -1.84905103149833
H           -7.15441219087540       -5.06635596905558        0.26473646477956
H           -7.88151841683132       -2.96717438530347        1.18311372082202
H           -9.32957908874157        0.77897439113202       -2.22314641416626
H          -10.48926640553403        2.91443091263967       -1.74641748707603
H           -9.32104921368287        4.73804567473998       -0.59000567697209
H           -6.97609978986281        4.47972297658393        0.10728226321759
H           -2.67979053724908       -2.39278226601214       -2.19474668855844
H           -0.23447086090666       -2.21241520280471       -2.49777677471771
