71
 energy: -15.837204161677 gnorm: 0.000431792592 xtb: 6.5.0 (97a52f5)
C            2.78366365073704        1.23713716230709       -2.30188370046603
C            2.68501367380971        1.11060559075417       -0.93008911133126
C            1.65977572847465        0.37565202637182       -0.37728994715982
C            0.71703880066714       -0.24330080771546       -1.18971975719576
N           -0.36354916476792       -0.99385963667227       -0.60972400592114
C           -1.73647295387517       -0.80934219201694       -0.88029670715737
C           -2.38829070558520        0.05554064307358       -1.75863289845777
C           -3.76001876546452        0.02500015928923       -1.82009241732592
C           -4.49837662285581       -0.84973437490036       -1.01792235332139
C           -3.87277681976409       -1.70216507855728       -0.14034881055940
C           -2.47931748957636       -1.68209922945886       -0.06764306532959
C           -1.53687709842078       -2.42882704841814        0.73112280368138
C           -1.70792210289752       -3.41129024037099        1.70156289123570
C           -0.59176497845203       -3.97719310997199        2.30058687267870
C           -0.76153929226187       -5.01292250321494        3.34733113564482
C           -0.25624878546204       -6.30180760256939        3.18314996792013
C           -0.46063821925345       -7.26185159899035        4.15175385066904
C           -1.16265945316285       -6.95463955259246        5.29766920422166
C           -1.66374700388211       -5.67318027568798        5.49515497097536
N           -2.37214037956459       -5.32860258737542        6.69682922003755
C           -1.97372276169473       -5.63727780003319        8.01746424989452
C           -0.89156037634796       -6.36402837557439        8.51544325438797
C           -0.74463633673023       -6.48592776038574        9.87611932154947
C           -1.65141634071273       -5.89134065748333       10.76007134450805
C           -2.71423402597057       -5.16096310161456       10.29107475670546
C           -2.87348865523303       -5.03225121405137        8.91041158930336
C           -3.84268992984862       -4.32658526686291        8.12003019659777
C           -4.93530307877627       -3.52679305005180        8.47460160660908
S           -5.50742325116515       -3.11595242714739       10.07087007555319
C           -6.81221169769106       -2.12751328033172        9.42984396599283
C           -7.77357054693030       -1.40661795278161       10.12098022015459
C           -8.71056127960596       -0.68598941539358        9.41637436289963
C           -8.69763839478786       -0.67844013745911        8.02467423084481
C           -7.75102537095058       -1.39109582988350        7.32795302581762
C           -6.79221873409250       -2.12960110783543        8.02996405235860
C           -5.70854815032170       -2.94115167318821        7.47724743206421
C           -5.39436482326442       -3.16374470998150        6.11452814865849
C           -4.32302984249075       -3.94283796748507        5.76442914274351
C           -3.52651701311789       -4.52257581820965        6.76844800976445
C           -1.45719403783647       -4.71690959820126        4.51314866552772
C            0.69598281192642       -3.54582528880553        1.91582518692383
C            0.87508931043613       -2.56822348119435        0.97177074770099
C           -0.24825822490806       -1.99531206085619        0.37337587937897
C            0.82790450297292       -0.11020879384191       -2.56871447281066
C            1.85407577454087        0.62499566249025       -3.11976581806690
H            3.58519726197582        1.81381636395379       -2.73380650083561
H            3.40861881818208        1.59010160193340       -0.29126961803136
H            1.56570531689875        0.28342501058332        0.69066855370504
H           -1.81489666676432        0.73209833462639       -2.36641590441535
H           -4.27646393621777        0.68576662622460       -2.49689980902039
H           -5.57367527877641       -0.85368315529399       -1.08846680136229
H           -4.43285820176997       -2.37705694266544        0.48261631014402
H           -2.69499219096140       -3.73220262990195        1.97896797857306
H            0.28224071202684       -6.54105384718898        2.28239234929799
H           -0.07522226140770       -8.25821824390771        4.00952434743926
H           -1.34435060341350       -7.70664673256762        6.04522377440107
H           -0.18468197141163       -6.80528728191456        7.83642739400580
H            0.08614767602378       -7.04717946530709       10.27132128194054
H           -1.50966810668940       -6.00427269356877       11.82232669293357
H           -3.41508533853871       -4.68823195319229       10.95525799633679
H           -7.77255493551300       -1.41878769271534       11.19717729280818
H           -9.46025468943881       -0.12152427222425        9.94627937550858
H           -9.43727807972986       -0.10655723590401        7.48865276393405
H           -7.73772662708329       -1.38556158926998        6.25242341307701
H           -6.00800331635492       -2.71172181934639        5.35579399754381
H           -4.08805840263835       -4.12574668872284        4.73156771214058
H           -1.82517056026344       -3.71930595752212        4.66575854622106
H            1.54981357050698       -3.99569602792257        2.39231052821972
H            1.85789184817275       -2.24274721685383        0.68155311256504
H            0.10525430338515       -0.59969625521252       -3.19799779456275
H            1.93189011386479        0.72206112668917       -4.19032431048274
