131
 energy: -29.508766691275 gnorm: 0.000362919476 xtb: 6.5.0 (97a52f5)
C            1.84489631564198        5.63336440257945        3.49053281950636
C            0.95090109066156        4.96180625927772        4.30145383497813
C            0.35245697841535        3.80346532876636        3.85733171902158
C            0.64023899556444        3.29986421395988        2.59419970132892
N            0.01414644104080        2.09180229347994        2.13005789199184
C           -0.67250669309381        1.92681370916070        0.90872870245814
C           -0.92247919354076        2.82278661623491       -0.13035826009477
C           -1.64485918966198        2.39103186527282       -1.21574827390822
C           -2.12822393762772        1.08089725307842       -1.28603643821980
C           -1.89777781607162        0.18713994256723       -0.26839876838825
C           -1.16529902058513        0.61252627498035        0.84104225458242
C           -0.76990001128581       -0.05559463241976        2.05650891309774
C           -0.98682675292687       -1.35033169140388        2.52410847643187
C           -0.47481006845948       -1.72597008597140        3.74867344901553
C           -0.78509594907117       -3.11753712273710        4.30140457702204
C           -0.70516503881017       -4.19060893747717        3.21497220788652
C           -1.58614142760619       -5.28459936709070        3.21609363171449
C           -1.47747565717625       -6.30395145422594        2.30310026215904
C           -0.45815878290996       -6.24901078170886        1.35426960193246
C            0.43852007336583       -5.16903941320489        1.35050407063210
C            0.31358336272771       -4.14378784066299        2.28605991134115
C            1.39237462082412       -5.40284554508618        0.29427705531176
C            2.48620151064757       -4.66628701431772       -0.16331856785587
C            3.21490359958377       -5.15832194926595       -1.21898711637257
C            2.87119478866990       -6.36916665568592       -1.82787959348000
C            1.79841093620581       -7.10476177707385       -1.38705955525954
C            1.05130023553280       -6.62366686414570       -0.31219249653363
N           -0.08503295235980       -7.15122106832695        0.33636679496019
C           -0.71787237176041       -8.40915591189808        0.04691319254168
C           -2.09267693179310       -8.48253787463114       -0.14328509475629
C           -2.69755400666652       -9.69047582347045       -0.41236300488931
C           -1.93846034111613      -10.84154790904762       -0.49482705463343
C           -0.57132588763759      -10.78119030794532       -0.30762361967625
C            0.03531521359539       -9.57421444282649       -0.03876580365776
C            0.14644481981781       -3.51545050964578        5.45122138227445
C            1.50059440167971       -3.75238951091793        5.43994356589040
C            2.14616415013257       -4.15384609177366        6.61283090063254
C            3.59451071519512       -4.46054004637265        6.58926838571846
C            4.08595191457846       -5.33884973424580        5.61974822446826
C            5.41180676775034       -5.69042965819416        5.56496616355063
C            6.32739876725804       -5.17315633224387        6.48431119187382
C            7.71039003637740       -5.53087550651684        6.45983673664781
C            8.58457180994461       -5.01478952012587        7.35245643170011
C            8.15814761394542       -4.08576083619622        8.35208907626151
C            9.04236460934067       -3.53182873826853        9.27943290459822
C            8.59965468533670       -2.63183858937495       10.22655652829553
C            7.27301750773172       -2.25776288945374       10.27703893810870
C            6.34804068340648       -2.78355794796501        9.37301864770337
C            4.96873991860096       -2.41184284729820        9.38724352682048
C            4.09262828810615       -2.93968342764012        8.50330312288838
C            4.49910287100496       -3.89496436528501        7.52106651325373
C            5.86701591615359       -4.26319939986795        7.46638546757105
C            6.79287335586514       -3.71078269738553        8.40039777636362
C            1.38690827906986       -4.31480613999008        7.78115512296555
C            0.03026274841673       -4.08060178821161        7.79623231235245
C           -0.59731166323064       -3.68238590976287        6.62248235847926
C           -2.00736876395395       -3.40312216027643        6.34254637103386
C           -3.11265023738491       -3.39732861140548        7.18429813415829
C           -4.34349382748014       -3.06090756003799        6.66720663981429
C           -4.50483343614366       -2.73159181319889        5.31343742798089
C           -5.82223000095883       -2.32684458150637        4.77172571962098
C           -5.92794741648241       -1.12028418873603        4.07475325560408
C           -7.12433011386521       -0.67884873925413        3.56647112559930
C           -8.29017763423241       -1.43164264659105        3.72534697135532
C           -9.55036545726712       -0.99450830661592        3.21340979554267
C          -10.66750520966422       -1.73959448983352        3.36890358302585
C          -10.62867962349694       -2.99686701256420        4.04858757576027
C          -11.76624337977641       -3.78851522166568        4.21561192975210
C          -11.69297873605384       -5.00042744954422        4.87053674021813
C          -10.49288633267947       -5.45800243180079        5.37337032040133
C           -9.32613485015633       -4.70414292926961        5.23312176592708
C           -8.06308266855384       -5.15077091753212        5.72917129780367
C           -6.94838327621978       -4.40032664292567        5.58160228595150
C           -6.97972628595854       -3.12700561580972        4.93341918272817
C           -8.21499569767657       -2.66818637138083        4.41073027476793
C           -9.39300558634572       -3.45739668379590        4.56618341209457
C           -3.38319600358344       -2.73984528221767        4.47948374776354
C           -2.15287040717436       -3.07799521663341        4.99116274530815
C            0.24125722560676       -0.78955463576581        4.51239940797278
C            0.46318049738556        0.49025688538944        4.06849648952916
C           -0.04967872832000        0.86870982168780        2.82920645120996
C            1.54125824693852        3.98455892998478        1.78731414282217
C            2.13877063402142        5.14277779119880        2.23319748043727
H            2.31273297363520        6.53977699303107        3.83864220728758
H            0.71959222077858        5.34536765288004        5.28178042381224
H           -0.35534219539921        3.28039151337253        4.47645265987101
H           -0.55686396583846        3.83182919413278       -0.06513661690583
H           -1.84457031142489        3.07266446151442       -2.02624665762352
H           -2.69207278859365        0.76952353173596       -2.15003335169224
H           -2.26930854415607       -0.82155403560019       -0.31123043397874
H           -1.55103205865997       -2.04627231216423        1.93120377346167
H           -2.35744338075996       -5.32358253886407        3.96509812208853
H           -2.14844505871773       -7.14388347627241        2.31863417888538
H            1.01386714860278       -3.32904429241574        2.28400918878274
H            2.74062401242609       -3.73392384754975        0.30922511677923
H            4.06233610449888       -4.60252654054166       -1.58548090576552
H            3.45709782552378       -6.72904486094542       -2.65771212130180
H            1.52241912641252       -8.03173541463493       -1.85688425908110
H           -2.67392440529488       -7.57865811931226       -0.08842060397655
H           -3.76416874382269       -9.73709664036768       -0.55994569949578
H           -2.41263455867159      -11.78643496594006       -0.70454922552789
H            0.02117460687759      -11.67943035212025       -0.36919891103429
H            1.09772805654909       -9.51927211123057        0.12292685826849
H            2.06021566024361       -3.63375306046370        4.53057367356851
H            3.39293336024586       -5.75953069244926        4.91124663531410
H            5.75886930031828       -6.37658353059723        4.81165556838733
H            8.04779867707801       -6.22695688989941        5.71142497697191
H            9.62290771150615       -5.29626799457938        7.32063920188878
H           10.08017604426162       -3.81551025314085        9.24591143961805
H            9.29844781956702       -2.21501085481667       10.93339511186674
H            6.93737139130813       -1.55225848016882       11.01745006039017
H            4.63716687691181       -1.69384896551074       10.11729944242243
H            3.06458848525935       -2.62499174665868        8.52081662904459
H            1.88088853745390       -4.65627141932206        8.67448144461145
H           -0.54803024688595       -4.21523198176386        8.69331529673019
H           -2.99382488668057       -3.64063231623613        8.22544986880896
H           -5.20331660861175       -3.02212442772096        7.31363071729308
H           -5.04229980910583       -0.52046087372400        3.95199108993615
H           -7.17576559163894        0.25902836691389        3.04065909841867
H           -9.59567643255721       -0.05158356446078        2.69636555406111
H          -11.60884233769828       -1.39509020397841        2.97699993012461
H          -12.70669906291096       -3.44119828994218        3.82373906421377
H          -12.58273005610200       -5.59715188567262        4.98860382329506
H          -10.44465611668978       -6.40650270538705        5.87995465454252
H           -8.01286999251299       -6.10628206677268        6.22203451652099
H           -6.00608252453080       -4.77058199363500        5.94373331882121
H           -3.48189611300355       -2.47999289143750        3.44173902098382
H            0.61644142793195       -1.08921516695085        5.47511120915667
H            1.02100672389880        1.19805445949869        4.65487957707215
H            1.77325170052027        3.58756950807701        0.81446728096872
H            2.83735673838372        5.66583096009892        1.60071307873288
