104
 energy: -21.485837237140 gnorm: 0.000646488090 xtb: 6.5.0 (97a52f5)
C            0.83750760679881        0.45214016271855        1.66511755780984
C            2.17535323240379        0.80720456615791        0.99058636103872
C            3.23899327985885       -0.24034945236098        1.37002112484115
C            1.97515752620154        0.76698147899211       -0.53649623270951
C            2.62820484511745        2.19416294321433        1.47100416858447
C            2.87224770439208        2.40300144710567        2.82163985892996
C            3.26566544527494        3.63321007880863        3.29308247319920
C            3.44132575540491        4.70990762805595        2.42943457478376
C            3.78323553168290        6.06206630542107        2.92681174503707
N            3.10563037405161        7.06452192713164        2.41446491884740
C            3.33593615253258        8.26734532571193        2.98305807783447
C            2.63013958037301        9.39467243162024        2.51895624340821
C            2.79487867013506       10.61935243766554        3.09698216806130
C            3.67483622977034       10.77583383198428        4.16768654536843
C            4.37611429569652        9.70515375062558        4.63976624188060
C            4.23016677310967        8.42692513460922        4.06634307901504
N            4.94391685777957        7.39547247334094        4.56449920890103
C            4.74369482123369        6.24163882485402        3.97155922217485
C            5.51365919089809        5.08540331273381        4.48304775025452
C            5.47133797556308        4.79563754412458        5.83876793769926
C            6.05001725699634        3.64251256423327        6.35699925756607
C            5.97533377160918        3.27876524000570        7.78792870445959
N            6.99848272275719        2.61166153239484        8.27040762101835
C            6.93753728077151        2.33674672094617        9.59080192064961
C            8.00191322490847        1.64201194109770       10.19829042176689
C            7.99192241259431        1.36004721942083       11.53308743278001
C            6.91619592206991        1.76121733553902       12.32498933438036
C            5.86907719964212        2.43530337780808       11.76775913066679
C            5.84568163830280        2.74089399047332       10.39266701511001
N            4.78005306944385        3.39130224789753        9.87885001041648
C            4.84103244790681        3.62976945895032        8.58876872000267
C            3.66277549193687        4.28543315777750        7.96584753446029
C            3.34683206127019        5.60622734767290        8.26880477292535
C            2.35117750235567        6.26406155099572        7.58181079687732
C            1.62652501148906        5.63069440124493        6.57868845470018
C            0.54232052649156        6.37808360274309        5.78579827496201
C           -0.80763292860353        6.19769623085484        6.49693923978839
C            0.87508392509617        7.88109224208282        5.68797047876006
C            0.43993654532176        5.83275671660602        4.34643482848666
C            1.88682282740176        4.28601606318923        6.34362646690513
C            2.89224181551705        3.62510934020808        7.01295431785670
C            6.74667618497664        2.81601826400016        5.48580418056115
C            6.85665901836061        3.10948402021178        4.13449279784497
N            7.60187950215914        2.24866324989262        3.26238639408711
C            7.24524811909979        1.88739742564590        1.94672994847852
C            6.11087548415442        2.17800906161443        1.19078731475738
C            6.03257295491842        1.70697262650089       -0.09598861709739
C            7.05933332436951        0.93455078700684       -0.64404849667366
C            8.17833901973725        0.62496099135326        0.09140334417649
C            8.27428523864944        1.10357010064951        1.39856789742794
C            9.29937749967023        0.97369274204372        2.40763751292657
C           10.53896951288262        0.33345171079532        2.40800450106174
C           11.32325070184223        0.41554012195427        3.53353565345585
C           10.89604428196067        1.12980700641762        4.65595288158404
C            9.67980034696751        1.76666974641744        4.66889099404663
C            8.86544532974704        1.68568378827988        3.53885089789685
C            6.23424656092413        4.24648517100593        3.64184156944280
C            3.18495185087399        4.50687687923214        1.07857157426509
C            2.79097184113592        3.27288509765530        0.60934702127399
H            0.47780804107700       -0.52023151763171        1.32986048786225
H            0.07681061753900        1.19439696452451        1.42491799324531
H            0.93823823729009        0.41492309940770        2.74894917727887
H            2.94399139988629       -1.23429521085066        1.03513459079650
H            3.38720093091211       -0.28292741491718        2.44803699305719
H            4.19764375746252       -0.00308619726363        0.91110486438641
H            1.65859867848570       -0.22508846978652       -0.85745251843640
H            2.90003109283299        1.00316546636357       -1.06115013543479
H            1.20832432399246        1.47448798586791       -0.85039487619689
H            2.74569333861426        1.58902971202023        3.51401231164317
H            3.42970607388862        3.77745180941687        4.34544677722477
H            1.94850355374068        9.26342066769022        1.69696062008164
H            2.24465065736950       11.46921945354459        2.72781257282351
H            3.80109160223305       11.74582554752303        4.61993176517523
H            5.05896126282705        9.81597536685028        5.46380154576504
H            4.94492998009549        5.47387180312318        6.48165022754223
H            8.82899974461736        1.33995436768467        9.57992116961057
H            8.81726648065922        0.82974423613049       11.97919481516230
H            6.91411405582924        1.53648704847232       13.37895722368116
H            5.03323204894681        2.74530273850757       12.37017464656628
H            3.92288256379759        6.11725358175396        9.02102114731296
H            2.14311627720264        7.29109040506260        7.82267222127023
H           -0.76595846275576        6.59252652601619        7.51162484496252
H           -1.07363899787961        5.14290021423603        6.55933775080366
H           -1.60334405824730        6.71704453696665        5.96362795781762
H            0.81422174751896        8.37092900753045        6.65844790970503
H            0.17843685652944        8.39152022515471        5.02354091720926
H            1.87974247097178        8.02638375618871        5.29342079320667
H            0.09650981567271        4.79986715301458        4.32774408462220
H            1.40628320636702        5.88197899066886        3.84800660663067
H           -0.26582387764290        6.41920194662759        3.75902132723048
H            1.30324205791242        3.74999440046644        5.61662924077503
H            3.11300725466763        2.59531187885860        6.78956539953444
H            7.20488233917108        1.92561220697079        5.87230461219630
H            5.30775396521483        2.74318418191721        1.62561798564079
H            5.16619272390223        1.93605084974594       -0.69369501508079
H            6.97088544312823        0.57596258099007       -1.65638467327592
H            8.97425493435002        0.03066059564386       -0.32149303847348
H           10.86376809033411       -0.20624916001739        1.53600802870877
H           12.28373070544974       -0.07281458739844        3.54983922148858
H           11.53344976550518        1.18415079844380        5.52332171797099
H            9.35467990882333        2.32699391493008        5.52670535067522
H            6.31191971215339        4.48582985495617        2.59792942440688
H            3.28942927919203        5.33970468214148        0.40468207141491
H            2.60185205457052        3.15208077681837       -0.44227126746051
