58
 energy: -12.941288680939 gnorm: 0.000650662847 xtb: 6.5.0 (97a52f5)
C            0.78769308120109       -1.72164540179548       -0.06026134534967
C            0.60824916366037       -0.35222589091564       -0.07522294311121
C           -0.65469386787386        0.17946458242676        0.06393594716005
C           -1.74954460598894       -0.65482816217724        0.22604239609555
N           -3.07089546723518       -0.09241896328388        0.36284810532282
N           -3.62851981432789        0.65187327729984       -0.57905764425160
C           -4.87852385966444        0.82813695290004       -0.16400498281089
C           -5.87985935692027        1.58556587500647       -0.90839172062383
C           -5.54974305263380        2.23986306981729       -2.09093790637625
C           -6.49846781230435        2.94484163213462       -2.78906068555190
C           -7.82245151347553        3.01539853312288       -2.34817715835033
N           -8.81170798824885        3.76170773677338       -3.06589492285380
C          -10.11032133990616        3.95144296365947       -2.47347923124491
C          -10.94429431546292        2.88804179133989       -2.14774227715589
C          -12.12018068291466        3.10461652269397       -1.45100303246936
C          -12.48356091783069        4.38213949227483       -1.07281754515063
C          -11.68211586020942        5.45742264982660       -1.41412740909734
C          -10.52553653495447        5.23616520233750       -2.12115892462575
S           -9.56634266325247        6.51649568740718       -2.61253006668489
C           -8.62928027984020        6.05002459691521       -3.91846043967793
C           -8.12710076866031        6.98778704134043       -4.78731841052498
C           -7.41194686422172        6.56954257053906       -5.89566092705955
C           -7.22036674117850        5.22093656380868       -6.12289599603971
C           -7.71307523084828        4.28310715187406       -5.23233454305280
C           -8.40204215603505        4.68413692289274       -4.09343801933639
C           -8.13474632338123        2.37625195914644       -1.14542822099238
C           -7.18746587399820        1.67495322987331       -0.44251046508344
N           -5.14086887502088        0.22174997790664        1.02186683946023
C           -4.01428327100287       -0.34812275731767        1.38053010023752
C           -3.81300167657687       -1.07132027258684        2.63152076617046
C           -2.52867321726072       -1.24825915572668        3.13840921503167
C           -2.34734086528232       -1.90903147985398        4.32245580812867
C           -3.46271704937030       -2.37636350164890        4.97500025309565
C           -4.69744208630080       -2.15457422734413        4.41306964804517
N           -4.90129061117761       -1.51884019667466        3.27400526226133
C           -1.56320262903517       -2.02993107323323        0.22862037378880
C           -0.29975253311112       -2.55965400652102        0.08962418686072
H            1.77606301359634       -2.13667778446446       -0.17038879133295
H            1.45647611264224        0.30090624774266       -0.19850149207068
H           -0.81178425381554        1.24387395943868        0.04739651675728
H           -4.53405560350076        2.18789135962411       -2.44285922728494
H           -6.20862599615443        3.47333716667522       -3.67730607913197
H          -10.65781518635627        1.89277568738046       -2.43997333510407
H          -12.75263670789300        2.27016425408787       -1.19712158436220
H          -13.39735489100491        4.54518490430550       -0.52575757944646
H          -11.95097882933036        6.46935299146210       -1.16074496812704
H           -8.32491306898530        8.02967382763207       -4.59767811304987
H           -7.02195964458920        7.29599492924438       -6.58925016975609
H           -6.68070068422011        4.89618909478335       -6.99700877725175
H           -7.57155509972968        3.23205728812545       -5.41490748980668
H           -9.12902949535077        2.45875768635569       -0.74798432593159
H           -7.43936744255985        1.18576639778075        0.48251959029458
H           -1.68645329462570       -0.84805632308036        2.60386566569409
H           -1.36142231271241       -2.05486529448851        4.73257982125390
H           -3.37166261409415       -2.90196169635504        5.91129804199461
H           -5.57978206017394       -2.51356997619913        4.92024471595197
H           -2.42004554401263       -2.67103164863522        0.34216771079076
H           -0.16060193640081       -3.62823396570458        0.09582578572244
