35
 energy: -7.398302351149 gnorm: 0.000674014854 xtb: 6.5.0 (97a52f5)
C            1.59895241865149       -1.25282936019719       -1.03330474257465
C            1.40864746787261        0.11363566802388       -1.09400212733964
C            0.17529571975674        0.65338384568780       -0.77236877628768
C           -0.85793760331280       -0.17527101555281       -0.39670587929038
P           -2.42021179141503        0.60531129812429        0.05125595764778
C           -3.54517351551650       -0.75518314975585       -0.32559526851625
C           -4.08043553200276       -1.14623409954663       -1.52778944235184
C           -4.91738989523216       -2.24851526641094       -1.56465868273187
C           -5.20777625420949       -2.94851480753632       -0.40486947649413
C           -4.66665227643697       -2.56001872719277        0.80361035773162
C           -3.82408369274949       -1.44897340214876        0.84827515208793
C           -3.13455177749089       -0.91132594772410        2.03649913204619
S           -3.08790518566630       -1.39031485460561        3.72923077427064
C           -1.96232769144805       -0.09804732638566        4.11707734881151
C           -1.38144399837023        0.22478052192488        5.33759258336158
C           -0.51208568428634        1.28626917708332        5.40943978063865
C           -0.20792903936761        2.03893246627713        4.27343496683552
C           -0.77220198992462        1.73500574117322        3.06165281648720
C           -1.66409928334682        0.65502331081173        2.97411734361853
C           -2.35164906385364        0.17584473605342        1.80733613649470
C           -0.66848860058975       -1.53708276312665       -0.32797216372141
C            0.56160800036561       -2.07969603674007       -0.64975338763892
H            2.55928456141521       -1.67424998116687       -1.28204680015118
H            2.21935072056538        0.76011433564801       -1.38771447767624
H            0.01401416292437        1.71997511384645       -0.80597532170668
H           -3.84165770506482       -0.59678581772013       -2.42274020053015
H           -5.34495158820694       -2.56355863567300       -2.50232385256417
H           -5.86100614530846       -3.80461577093087       -0.44685760475742
H           -4.87955171029597       -3.09969422238586        1.70956788268812
H           -1.61883506858914       -0.36189313436718        6.20797537491104
H           -0.05752103870232        1.54075679199011        6.35288541057251
H            0.47753427589783        2.86681061986191        4.35105007048642
H           -0.54253154684627        2.30476318088886        2.17843656997396
H           -1.47961378563020       -2.17309132808565       -0.01573061311569
H            0.71064413640347       -3.14580116014351       -0.59695884121112
