86
 energy: -18.386082263798 gnorm: 0.000517771250 xtb: 6.5.0 (97a52f5)
C            1.29487281779268       -0.28011254299095        0.61302701938727
C            0.59084086808100        0.43795449859615        1.55918437246963
C           -0.74142833414752        0.71995667572010        1.36015758627535
C           -1.39934753493648        0.28745622560173        0.20708205076366
C           -2.83642171467896        0.57001210572329       -0.00236591262691
C           -3.32889840875169        1.86261282878625        0.14490935618025
C           -2.44262662843405        3.04206831931818        0.26060942123455
C           -2.83878718883643        4.14265097547321        1.02301292076512
C           -2.04655819168408        5.26492642937306        1.11428103180358
C           -0.84579811625336        5.32265297362949        0.43579677353161
C           -0.44558092217746        4.25607264808159       -0.34361947828351
C           -1.23653837939562        3.13321650842636       -0.43706249325517
C           -4.78657757614383        2.13925808467064        0.06534377858451
C           -5.25750123242667        2.90675734488801       -1.00060266161518
C           -6.61181751373803        3.06170610467533       -1.25879183322653
C           -7.07508805845460        3.79815486632966       -2.45604357338063
C           -6.38936167185733        3.69330030180303       -3.66514072611006
C           -6.82775571044814        4.36357883686600       -4.78624630790943
C           -7.95772521131568        5.15355899298964       -4.72226370039547
C           -8.64890261155217        5.27096370317178       -3.53331546314667
C           -8.21376139887511        4.60028623227972       -2.41074250021480
C           -7.51932057951370        2.45875342232586       -0.38889312750078
C           -7.08153986456473        1.74350628587276        0.69951561828231
C           -5.72364176413340        1.56980184144444        0.96122178830596
C           -5.31058835370246        0.82566222824213        2.17343205889031
C           -5.93304747961207       -0.37481654493814        2.51496321585062
C           -5.61675968844144       -1.02521632377812        3.68753963952006
C           -4.67396029103663       -0.49169627031440        4.54387629021217
C           -4.03675036498569        0.68862647285238        4.21661159442295
C           -4.34881119430291        1.33899897927637        3.04332755346968
C           -3.72103288271769       -0.54150952838928       -0.42767155399698
C           -4.73141818847884       -0.28469138801513       -1.35166227826909
C           -5.66269858029660       -1.23249112936833       -1.74305235853643
C           -6.79137523120738       -0.83580678436770       -2.61552420900919
C           -6.59874107931644        0.05368753488429       -3.67143651403547
C           -7.66216022008957        0.48597646281752       -4.43342361592272
C           -8.93791294887291        0.03783360843583       -4.15777086740810
C           -9.14736457572796       -0.84709083382001       -3.11926008606730
C           -8.08611725193897       -1.27989888257554       -2.35400188717111
C           -5.53462104567533       -2.52345747510686       -1.23714518832308
C           -4.51453973028250       -2.82996972478058       -0.36918513424023
C           -3.60042544498576       -1.86784562799799        0.06077289631627
C           -2.55387642002293       -2.27600096998066        1.03039565284886
C           -1.61112924553123       -3.24809029926968        0.69777160304428
C           -0.63434391289336       -3.61680464169936        1.59673055580210
C           -0.58552986427284       -3.03241809285960        2.84687261123067
C           -1.52046418468694       -2.07969060526885        3.19802650492304
C           -2.49437375026204       -1.70808962788838        2.29915478195202
C           -0.67040245863775       -0.43613716475912       -0.73767935053631
C            0.66236923185558       -0.71532699754156       -0.53476214974680
H            2.33733481643321       -0.50312331218662        0.77196732184831
H            1.08311603418891        0.77337997555618        2.45733975922186
H           -1.29831425419417        1.26612089222507        2.10177336884317
H           -3.78654658197748        4.11227244879818        1.53189125915761
H           -2.36733321466490        6.10253751821334        1.71210383870500
H           -0.22649661933972        6.20197114835571        0.50733487726348
H            0.48677836495503        4.30359355846847       -0.88243284799811
H           -0.92951044675104        2.31251610369869       -1.06096164784408
H           -4.54197031809729        3.35210722744240       -1.66794501554591
H           -5.51703488527669        3.06532671831878       -3.72105783926739
H           -6.28841961989101        4.26981651227196       -5.71473311731688
H           -8.29937894057536        5.67901989142683       -5.59926942221826
H           -9.53000556077534        5.88983056988005       -3.48224902055452
H           -8.74755383577184        4.70134459453926       -1.48157988685321
H           -8.57347070329019        2.54902129726012       -0.58632641564603
H           -7.79783138974287        1.30734225255602        1.37438089866564
H           -6.66414998669062       -0.79262197996454        1.84425927566095
H           -6.10550363216118       -1.95310515950074        3.93618834834033
H           -4.42732184523433       -1.00219998327443        5.46057378548862
H           -3.29337698606301        1.10106410002922        4.87926028543569
H           -3.85888543384759        2.26264538552215        2.79284863960180
H           -4.82248481855418        0.70483598005579       -1.75516173294676
H           -5.60386937039841        0.40258866012167       -3.88820033331252
H           -7.49861476755467        1.18161044904105       -5.24034086873503
H           -9.76975080644624        0.38088542523774       -4.75120180047001
H          -10.14399092625087       -1.19538115480058       -2.90172588578453
H           -8.25327057605853       -1.94959498991965       -1.52795833164355
H           -6.24039655974631       -3.27899260483044       -1.53634409597914
H           -4.42274439037873       -3.83129878439854        0.01568062687003
H           -1.64778656202144       -3.69551290353604       -0.28065730926608
H            0.09557794777028       -4.36072651664231        1.32199809990536
H            0.18173405877893       -3.31891782937427        3.54757069714093
H           -1.48513828670409       -1.62129999953899        4.17281171235729
H           -3.21988015167500       -0.96028840756085        2.55808664960174
H           -1.16920380045437       -0.77893088223797       -1.62785835096788
H            1.21164413123174       -1.27865623794543       -1.27137922677579
