86
 energy: -14.569785189410 gnorm: 0.005371738822 xtb: 6.5.0 (97a52f5)
C            1.54740704854284        0.75028696769856        1.27116330151123
C            0.62189385958042        1.74769143453666        1.50345814686482
C           -0.66430795477879        1.62106879898291        1.02963564617949
C           -1.05468107521052        0.50060369628470        0.29335107522543
C           -2.44861505517606        0.31306830528890       -0.17056774737359
C           -3.21563980087458        1.36668946592906       -0.64071232358323
C           -2.63365443100186        2.71352879034283       -0.85803301841393
C           -3.21016940629099        3.84727556094044       -0.28304918461337
C           -2.65757684554564        5.09360301865523       -0.47412461151251
C           -1.52099226579258        5.23794164977029       -1.24489546636846
C           -0.93944509440303        4.12982350807376       -1.82835770171406
C           -1.48961161439569        2.88176237802384       -1.64073908582016
C           -4.58147417604549        1.16732587072065       -0.95306835201140
C           -5.45029859261976        1.99851482215103       -1.56770376524371
C           -6.75767020924125        1.71814183337729       -1.74907574709835
C           -7.45882346702564        0.59825621503122       -1.33342856270908
C           -7.47684759706892        0.03964014479880       -0.12899865676908
C           -6.92335429411510        0.51024183088561        0.97235514459529
C           -6.90692772220746       -0.01482282799656        2.18660883315418
C           -7.45232221824315       -1.17516826663909        2.60958686283410
C           -7.36696044517199       -1.59318797634721        3.88021302092351
C           -3.41532308948643       -0.95939737793062        6.74477343260751
C           -3.24966556427194       -1.81906369362801        5.81189979212912
C           -4.18465264325154       -2.29168130988901        5.00057647884011
C           -4.02021360436248       -3.21259710925118        3.98473599784673
C           -3.76031685725847       -4.54157697641809        4.03033779882358
C           -3.67967536474732       -5.31987922947715        5.16825225957246
C           -3.86454129868142       -4.86440003417217        6.41330792328043
C           -6.92583971499066        3.81311787483746        2.43541312280556
C           -6.53639119541148        3.96523289668113        1.20690389970604
C           -2.95191033055623       -1.01309917831766       -0.08111371019671
C           -4.18601945741297       -1.52287471336219        0.11736729432320
C           -4.42647595570363       -2.84337354692212        0.26490967300356
C           -3.52498785057501       -3.89280250459802        0.24261473824179
C           -2.33633880193703       -3.98665207716358        0.82679427553447
C           -1.76388543954159       -3.11367873521005        1.63322842807313
C           -0.58214105513659       -3.18783707820078        2.22363885812763
C            0.33591190535924       -4.17567181292531        2.14712756159034
C            1.50675131117696       -4.13290250759037        2.79791271173122
C           -0.34819467534389       -0.18658156675397        4.32938740500104
C            0.31521453259632       -0.90194901885272        5.19956513832514
C            1.44840656646300       -1.55062934108188        4.98754160279458
C            2.15261524794749       -2.32683667211309        5.88995590634988
C            1.78677527477357       -3.43889907162403        6.57235645296394
C            0.58092867150260       -4.10725498339678        6.47032674325149
C           -0.41738470306336       -3.76335254127265        5.64796328237633
C           -3.83960876282775        1.82027850130736        2.82403389704728
C           -3.53045487678525        0.58384293982379        3.07186019395896
C           -0.10362704365030       -0.49945005483659        0.07895134921324
C            1.17964571538142       -0.37521220651794        0.56169266657551
H            2.55121779783918        0.84526373080204        1.65219804437315
H            0.90395027990323        2.62250848542465        2.06646172127033
H           -1.39040188983040        2.38600018376205        1.24077059937165
H           -4.09076601063940        3.73133603153412        0.32425470505770
H           -3.11244963277358        5.95868389623982       -0.01975331811544
H           -1.08943691206955        6.21477638674435       -1.39152190120009
H           -0.05243203027000        4.24215475759053       -2.43007749438799
H           -1.03670467091541        2.01551331932648       -2.09163029241532
H           -5.08325536730737        2.94089186391561       -1.93646675566444
H           -3.35701653959016        4.72161865359207       -3.48252949302294
H           -6.58935673521510        3.90415498442429       -4.03177783168178
H          -13.52441836939240        4.98747429718864        0.27156527432406
H           -7.97748984260203       -1.78169840716020        1.88856491067048
H           -7.77029509279556       -2.49815419354477        4.23118192593055
H           -6.22127416560676       -4.03204653192550        2.12922728720359
H           -0.98521695065200       -6.30421305100612        3.77601364306335
H           -3.60707775422390       -5.02629412229886        3.08002989981465
H           -3.46254053973998       -6.36967319040865        5.04312617355272
H           -3.80643056203679       -5.45776229835214        7.27827722198565
H           -7.34697096359285        2.92816667325675        2.81853607881081
H           -6.61320252830541        3.22280669675125        0.46443968555891
H           -5.01795672624691       -0.84986940056568        0.21425268529572
H           -3.29029968283875        1.91417433640021       -3.79234033749060
H           -4.91937011674313       -0.78283932239820       -2.88440319565933
H           -5.24935813791432       -4.64985385386588       -2.08736272580595
H            0.10721542735227       -5.03155714570322        1.53319730467167
H            2.23680020050497       -4.88810115914244        2.75888796832894
H           -0.01724129905880       -0.04454629677382        3.34411229715108
H            7.44830543696249       -4.87493347078806        4.80450785805258
H            2.52024580413009       -3.83229593611684        7.25913761257603
H            0.44010437060363       -4.97734174875204        7.09294190964622
H           -1.33505344916742       -4.26841408807944        5.57869006221402
H           -4.71712680852807        2.12136108385598        2.33043166658721
H           -4.11679012951800       -0.24380046589971        2.80032622015997
H           -0.39313491553514       -1.38362422684260       -0.46258309255201
H            1.89550894836228       -1.16332054528499        0.39391069476410
