102
 energy: -22.170925836438 gnorm: 0.000210152578 xtb: 6.5.0 (97a52f5)
C            1.11655741675896       -0.49541111709924       -0.87339526475659
C            0.68436959097393        0.22981283803555        0.21900107235524
C           -0.64504653505580        0.56093958250814        0.34535835801594
C           -1.57637768880604        0.18099168312902       -0.62548988302978
C           -3.00790615610800        0.51905352476716       -0.48993341385609
C           -3.41100241153076        1.75605612010084        0.01967006849763
C           -4.79065186124672        1.96982634441862        0.50997617513125
C           -5.46823973512247        3.15571265501570        0.22024853397398
C           -6.75092561265470        3.36473125540136        0.67365315516007
C           -7.38394825024611        2.39912703758055        1.43074366788189
C           -6.72748891299794        1.22379340367112        1.73746275351583
C           -5.44449027242107        1.01100897647596        1.28661893393044
C           -2.48133058923266        2.89601246976635        0.08331283148054
C           -2.46671353194610        3.75057632249931        1.19311693395924
C           -1.60055791041262        4.80721171775698        1.25617060921745
C           -0.71607119276200        5.10392309373242        0.20716798676874
C            0.19022014748733        6.22944243632048        0.27253647771081
C            0.39461254454570        6.96758352530068        1.48257315593416
C            1.32518866138508        8.10039318404013        1.55272604939454
C            2.05530881956390        8.55278422247195        0.40659235388447
C            2.95902177751472        9.68038110587927        0.47156235142832
C            3.32708946564746       10.25877102602085        1.69621827745976
C            4.19516503304172       11.31286600422511        1.76399271394517
C            4.74212651810537       11.87373701886903        0.60212560313288
C            5.66898999243339       13.01592658202650        0.66440336648118
C            6.66871183597899       13.08418953518482        1.63821009036207
C            7.36300386652484       14.35299265191646        1.93672891802062
C            8.73685726195865       14.36980707744586        2.19106893296502
C            9.38806177894142       15.54760545527032        2.47849417639327
C            8.68486323122622       16.73507621871255        2.52517883335633
C            7.32488051026600       16.74026403675874        2.28643341234727
C            6.66960406424505       15.56494892906037        1.99885390870449
C            7.08429386859726       11.88018374028351        2.38679433020411
C            7.40148804459804       11.95775754822931        3.74525139669008
C            7.79988617767313       10.83997653091645        4.44249781646801
C            7.89682949471641        9.62043575975048        3.80196044870316
C            7.59765056573670        9.52273913391513        2.45770146057355
C            7.20056566583189       10.63782846526579        1.75644286863265
C            5.50286114327806       14.08984542920932       -0.33983464736628
C            6.60366031041292       14.67266504616774       -0.97119098321188
C            6.43509323083511       15.67061619656481       -1.90406974542113
C            5.16631723070892       16.10443572135681       -2.23332413349655
C            4.06416991594223       15.53333089464620       -1.62878699162910
C            4.22824257887257       14.53535106252070       -0.69511359901558
C            4.36051621400660       11.32250138560682       -0.62782258540770
C            3.51097800431247       10.25201757000334       -0.68580195438824
C            1.83981093250169        7.82373543224130       -0.80707149749425
N            2.41372620900716        8.06954697269355       -1.97041301185765
S            1.88635820070288        6.97489573870603       -3.06685700016254
N            0.89092575983031        6.13547222318319       -2.07540872018211
C            0.93432574268132        6.67022917162441       -0.86904586419389
N            1.37535008660011        8.62925192534806        2.76143103584848
S            0.36253226122274        7.80412779547835        3.74719220913060
N           -0.18445563113845        6.72585748423956        2.64421833547652
C           -0.75719680434572        4.25541617088724       -0.91010886551271
C           -1.60200013347649        3.18192035743123       -0.96970789141628
C           -3.99662772246739       -0.50372892340551       -0.88734481776518
C           -5.16330207373742       -0.15852135941853       -1.57526319313280
C           -6.07417088968389       -1.11981102661545       -1.94895350630095
C           -5.84135463320066       -2.44797603358621       -1.65172506464638
C           -4.69076079799467       -2.81252668024230       -0.98088225490098
C           -3.77709010823203       -1.85448950215552       -0.60500362898094
C           -1.11821320796911       -0.56012777639419       -1.71770679776997
C            0.21226511937712       -0.89082462159496       -1.83919426268987
H            2.15819361842796       -0.75421842320414       -0.97086898704044
H            1.38909413442555        0.53719446153402        0.97422439952167
H           -0.98250298331848        1.11845985331498        1.20169883432093
H           -4.97378763170112        3.90572538614710       -0.37270741352616
H           -7.26202926300418        4.28347030844434        0.43661957832861
H           -8.38886372208566        2.56373533532173        1.78364430354329
H           -7.22048074932928        0.47144119804998        2.33104042731556
H           -4.92973462795371        0.09767889410039        1.52947784457511
H           -3.13724837458713        3.54937400813282        2.01069257707848
H           -1.59419261531463        5.43016643305660        2.12903475939615
H            2.91645742953346        9.85769905596338        2.60194651999990
H            4.46122843131429       11.73370913249347        2.71811875482823
H            9.28471908687774       13.44423856154792        2.15018230827128
H           10.44912982852297       15.54328026186498        2.66712841263616
H            9.19665499919641       17.65656643542550        2.74974080964800
H            6.77531919476463       17.66647033922451        2.32583998114240
H            5.60846233243976       15.56781229830378        1.81986035678064
H            7.32162755434200       12.90783614895224        4.24466358412650
H            8.03620559252008       10.91623764650754        5.49117822581682
H            8.20729574363588        8.74595617811488        4.35002351588635
H            7.67462298383796        8.57170861046356        1.95660153478129
H            6.97504761629755       10.56269833588232        0.70687604579634
H            7.59176317256710       14.33046977242282       -0.71682839783870
H            7.29522867991201       16.11440273921278       -2.37803292600880
H            5.03611833488929       16.88681492583553       -2.96299938063520
H            3.07363997249076       15.86985209640197       -1.88780946378048
H            3.37070923586854       14.09065505746662       -0.22026905518273
H            4.76696057191333       11.74195301709804       -1.53190493377131
H            3.25712676442109        9.83361695089901       -1.64000649754082
H           -0.10508715812064        4.45738602187159       -1.73709079937950
H           -1.61035669364993        2.54773241045510       -1.83918874976805
H           -5.34098465502911        0.87584919046625       -1.81317671391776
H           -6.97062442843380       -0.83538929987283       -2.47516902024726
H           -6.55598166171167       -3.19957974980888       -1.94481294304554
H           -4.50817017701449       -3.84942940402147       -0.75076157778901
H           -2.88218303360359       -2.13692069053988       -0.07786350359812
H           -1.82297658068414       -0.86519121914500       -2.47181495183854
H            0.54944246613652       -1.45986902877146       -2.69001748345497
