105
 energy: -22.835166594706 gnorm: 0.000366286164 xtb: 6.5.0 (97a52f5)
C            1.16553346801557       -0.58586150321850       -0.23915824139968
C            0.57430227652269        0.19545398471551        0.73335909597488
C           -0.76469212603263        0.50253884522101        0.65230061823556
C           -1.54402260873727        0.04259843091989       -0.41236100621664
C           -2.98445341563832        0.36198874422573       -0.50658571456124
C           -3.46458099418270        1.62738851326165       -0.17937985631321
C           -4.90762138320526        1.86823681333808        0.04563439277444
C           -5.52127944073625        3.01031832367325       -0.47140585216147
C           -6.86215254753275        3.24528036845114       -0.26694028567865
C           -7.61864265440118        2.34992143546977        0.46250446921667
C           -7.02815201500639        1.21994600346193        0.99226228563504
C           -5.68727811898656        0.98194605602451        0.79101052207727
C           -2.55595415044646        2.78156046247981       -0.04995320441613
C           -2.72042327855249        3.70918767682614        0.98365510865232
C           -1.87204731289797        4.77636693206500        1.11414170286283
C           -0.82621975227751        5.00374665848387        0.20928840889441
C            0.07770481702107        6.14378194858782        0.33391807832790
C            0.27656910429527        6.82679122466940        1.57027931223801
N           -0.37597928502726        6.36835211144929        2.65884802624514
C           -0.16828601890453        7.03112379263366        3.75836944536974
C            0.65985956494268        8.13267269192789        3.84231570892250
N            1.32895150001663        8.60940358875707        2.83412031770627
C            1.16878628307702        7.95268885867898        1.66618570770918
C            1.88739686178951        8.42602927888211        0.52862520554030
C            2.80664061660639        9.55833209235713        0.60141566938016
C            3.39762406796733        9.96315341612934        1.80568294051740
C            4.28106033616014       11.00774154020411        1.85992101756139
C            4.61890273882040       11.72645717297588        0.70802199561891
C            5.56421068586327       12.85718600436344        0.75598526679028
C            6.73466761785402       12.78818858961690        1.50726753436614
C            7.51935853324276       14.00130167442876        1.81941475601893
C            8.91445989882163       13.97965870777218        1.75968559602647
C            9.65156480804637       15.10271249547870        2.05957573096106
C            9.01542797038233       16.27035232175483        2.43162071072075
C            7.63736446273602       16.31066241897065        2.50640702490769
C            6.89652880061150       15.18995037793384        2.20765771727799
C            7.24788351308670       11.49421197535946        2.00552199587541
C            7.80716279311406       11.39408536417441        3.28117297303421
C            8.29645374902860       10.19417654288889        3.74560199207126
C            8.24450106448236        9.06845642141370        2.94772833399738
C            7.70524337211158        9.14750735747338        1.67935453039708
C            7.21698561771917       10.34559737120200        1.21049416950436
C            5.22258023398662       14.06653268502249       -0.02596103604389
C            6.18370630008759       14.73967193436228       -0.78235169486213
C            5.85153446447544       15.86066988285574       -1.50897161177199
C            4.55311579430715       16.32987565886464       -1.50408412372447
C            3.58521306785817       15.67133363441771       -0.77222814029979
C            3.91358066365425       14.55065213720080       -0.04327757393818
C            4.01619190008967       11.34696956620083       -0.49552774738281
C            3.15258144086967       10.28532855198663       -0.54605644867000
C            1.68777227372252        7.75255568284348       -0.71205970732475
N            2.26422054317078        8.03981526450732       -1.86924666472404
S            1.73417136822439        6.98237648009848       -2.99902735940864
N            0.74487787194627        6.10972416089739       -2.03185124664940
C            0.79880738757731        6.60708182142223       -0.80561661064807
C           -0.69270791942641        4.08671429957656       -0.84210527003732
C           -1.52164337067849        3.00416932282028       -0.96538772143343
C           -3.89694141663631       -0.71462244693119       -0.94629192766786
C           -4.93821469213841       -0.46373491572640       -1.84319365084766
C           -5.77822743388197       -1.47458999177572       -2.25126695460683
C           -5.59483769836363       -2.75974343735849       -1.78123207370949
C           -4.56458925981114       -3.03192913457579       -0.90318700506663
C           -3.72277265612621       -2.02362523843504       -0.49174284904727
C           -0.92806742625458       -0.75534953503742       -1.37885188051084
C            0.41102556267009       -1.06238030087523       -1.29277613681827
H            2.21447539970456       -0.82487587197799       -0.17489202645432
H            1.16216592434384        0.56661557438172        1.55686598276119
H           -1.22646593817676        1.10631879442600        1.41410079352373
H           -4.92976120926799        3.70550343786429       -1.04190893449188
H           -7.32197956118986        4.12916174123499       -0.67782466099845
H           -8.66885260335535        2.53411039604834        0.61951651884070
H           -7.61812556218181        0.52209194043225        1.56355072821784
H           -5.22480983858839        0.10338791849406        1.20624057635999
H           -3.51634798959933        3.55942252147716        1.69261721307314
H           -2.01063837260718        5.46147110245620        1.92860527194058
H           -0.68477001098661        6.68534668261041        4.64044961732709
H            0.77656171035905        8.63953763292192        4.78775178663345
H            3.15344398587634        9.43362035345909        2.70667139923743
H            4.72199521300875       11.29480607863754        2.79877984128165
H            9.40837436305659       13.06924948070278        1.46680746028811
H           10.72736027536281       15.07045598030769        2.00388667683176
H            9.59416156415880       17.14881360010547        2.66593360029532
H            7.14071093260297       17.22090897639595        2.80005245115476
H            5.82268106458493       15.21829655615077        2.27273338479391
H            7.84435820933221       12.27180644874167        3.90304489814487
H            8.72074747052568       10.13299530320820        4.73436943543541
H            8.62621766845145        8.12937363172429        3.31369973018117
H            7.66567729037373        8.26972742843372        1.05530657177213
H            6.80296179577110       10.40853863007015        0.21915150552220
H            7.19421265249574       14.36955851086969       -0.78957346992067
H            6.60664764657917       16.37297988548098       -2.08238100182828
H            4.29474590547685       17.20812141366625       -2.07281891097841
H            2.57082377234742       16.03538179204758       -0.77122032454491
H            3.16139177275506       14.03691685279540        0.53023869574290
H            4.26165998821843       11.88939318752042       -1.39220945148814
H            2.72995951576415        9.99281434429287       -1.48866101976478
H            0.08183294771250        4.24339382493428       -1.56863597539052
H           -1.39296687116227        2.31449197341622       -1.78151150643664
H           -5.07652282517337        0.53694711436227       -2.21422897501352
H           -6.58054754502757       -1.26222433399839       -2.93874494306776
H           -6.25401878503952       -3.55013456792040       -2.10106310332963
H           -4.41940123240647       -4.03577582854687       -0.53892426010961
H           -2.92107796865799       -2.23330205320183        0.19519917541603
H           -1.51657116840349       -1.12323786198703       -2.20154471125038
H            0.87182399373357       -1.67536775991809       -2.04997880512960
