108
 energy: -23.225301353301 gnorm: 0.000219645545 xtb: 6.5.0 (97a52f5)
C            1.32708060052052       -0.41415230249388       -0.49810537419647
C            0.78056391529916        0.32560808612070        0.53137395961187
C           -0.56929661426153        0.59339920912879        0.54774987360061
C           -1.40545833666897        0.13363469603378       -0.47243235575671
C           -2.85987339469545        0.39920717631245       -0.45464530749405
C           -3.35819887762309        1.63352211410303       -0.05469536064736
C           -4.79142780155152        1.83005907212962        0.25379513892015
C           -5.44502271068837        2.99482010481461       -0.15142295472787
C           -6.77739967766737        3.19263502831885        0.13285213317474
C           -7.48532695033949        2.23668808727157        0.83370904721075
C           -6.85414597691194        1.08323667534883        1.25497513476159
C           -5.52162415620545        0.88243546231497        0.97337803562160
C           -2.46994117913238        2.81150302013800        0.05826217752157
C           -2.47853991050038        3.60750487006847        1.20737857311436
C           -1.65363212036184        4.69925086729426        1.31157087100939
C           -0.80550275169689        5.06453898688126        0.26309624547697
C            0.04989056903044        6.23750859546891        0.38043401136242
C            0.52539524803900        7.00250502634510       -0.65394878152167
C            1.31973852542020        8.08987651586696       -0.24174412870810
C            1.50071947497627        8.17543309027255        1.11453518883387
C            2.29168530012051        9.16696125157729        1.80258247346523
C            2.59918365078558        9.02880245341917        3.14477551380363
C            3.38765249172127        9.94836838768867        3.83517270643760
C            3.90511150265742       11.08447543564378        3.23555056978520
C            4.74453402221421       12.03394268995971        3.97387575562059
C            5.57225433815031       11.61174676290388        5.01931418210277
C            6.36863963341040       12.50231475548493        5.69307622145316
C            6.36551858931736       13.86210655259337        5.36608977741083
C            7.23371100826539       14.82162138000619        6.08330716425064
C            8.59174698717495       14.57051946567301        6.24333347053383
C            9.41263788488141       15.34703791084871        7.19704617116118
C           10.68867435558723       15.78745381324837        6.83981111471385
C           11.46337393929556       16.50035262335772        7.72663856271373
C           10.98612992333195       16.78437741571909        8.99083926804824
C            9.73090197683744       16.34953757975244        9.36749044093330
C            8.95303654680123       15.63624634598609        8.48391377695874
C            9.26916933515335       13.51598364347037        5.45847331950206
C           10.24582047943956       12.70983368990228        6.04662033617433
C           10.89260697989653       11.73732758182768        5.31771728988848
C           10.58444603357663       11.54934165218011        3.98494603886065
C            9.62885211763089       12.34166868404633        3.38098217369861
C            8.98189549881315       13.31627470964133        4.10592151714272
C            6.59977276276617       16.04430815065089        6.62286904602654
C            7.22115553554730       17.29122158019917        6.53277519403770
C            6.61578752017811       18.41955867302317        7.03834706288568
C            5.37435272507337       18.33112849556859        7.63611136175953
C            4.73660236729224       17.10959774356816        7.72213935931374
C            5.33915775202743       15.97895745481282        7.21830636546459
C            5.52332254302138       14.28948541234132        4.33546081388787
C            4.74848660453646       13.39240327227104        3.64584002952141
C            3.59518083833869       11.29941438862280        1.84838400450844
N            3.97971158143031       12.31197758544963        1.09202280323018
S            3.39366765908406       12.07527477837891       -0.42090688638358
N            2.62736764931679       10.65171098872976       -0.14738020701936
C            2.80050519652772       10.32592266449129        1.12100133555828
S            0.62455381674611        6.88456813905866        1.89488114500189
C           -0.80721058621265        4.27686685978633       -0.89174340053421
C           -1.61497688662062        3.17184458199551       -0.98820964300300
C           -3.76090063996318       -0.69511080208547       -0.87627805732616
C           -4.84116480661067       -0.45742279992356       -1.72911662577728
C           -5.66718700002976       -1.48471174945002       -2.12520673807134
C           -5.43098421776409       -2.77220722722139       -1.68587630985675
C           -4.36223669560359       -3.03025248557540       -0.85048118303070
C           -3.53373476792025       -2.00572767702761       -0.45177875266646
C           -0.83339766857514       -0.62038594439426       -1.49886871448534
C            0.51708213017950       -0.88776273983240       -1.51109215512378
H            2.38419379582784       -0.62395168135232       -0.50928659416701
H            1.41132713976692        0.69334965240409        1.32417597714488
H           -0.99606150554918        1.16119384612735        1.35605185415805
H           -4.89136972672126        3.73795441027301       -0.69903649960088
H           -7.26862807863023        4.09501397098862       -0.19277745775017
H           -8.52893838729622        2.39190150928101        1.05374766894209
H           -7.40574743487745        0.33827061090276        1.80479955243418
H           -5.02767244474718       -0.01379474107964        1.30639081159992
H           -3.13599096777757        3.34292667367301        2.01744069644982
H           -1.65912588462662        5.29973720904974        2.20440636750403
H            0.28845778839791        6.80502645293150       -1.68775087713298
H            1.75782720408280        8.79877650222527       -0.92471686202765
H            2.21980918601984        8.16625583824101        3.66383663790712
H            3.58489847253530        9.78209829366832        4.87963922770490
H            5.60626893258792       10.56680903604952        5.27334466360537
H            7.01263260435635       12.16199843832222        6.48557620396423
H           11.05770624484330       15.56630940301430        5.85309233703878
H           12.44427428897667       16.83734360480669        7.43362226603729
H           11.59388165908296       17.34299036462572        9.68381681239939
H            9.35959035103429       16.56840923083711       10.35529042342317
H            7.97691669040344       15.29133954289525        8.77812942431430
H           10.48420450999523       12.85634749686946        7.08598450395006
H           11.64158806358474       11.12151424410730        5.78817669740401
H           11.09092601335667       10.78690832151176        3.41591615809009
H            9.38865405613895       12.19732093368420        2.34025831202146
H            8.24414364070173       13.93943638047794        3.63135929225317
H            8.18624307140870       17.36026172925044        6.06164235476942
H            7.11226377121768       19.37354777048808        6.96789267075181
H            4.90241291782268       19.21507937422214        8.03300898906432
H            3.76575091508864       17.04080505530141        8.18510069684203
H            4.84476885659107       15.02516453388364        7.28549829328764
H            5.51288465924385       15.33305599748719        4.07211986141093
H            4.13475195114199       13.72641667702740        2.82845802405443
H           -0.14999402187199        4.53494776069205       -1.70366508261093
H           -1.60378699597904        2.56817976730450       -1.87923991596777
H           -5.02030364250197        0.54571182624073       -2.07552230349224
H           -6.49936833866086       -1.28360209095604       -2.77986568988548
H           -6.07890435067736       -3.57548040367416       -1.99666182940025
H           -4.17628405481289       -4.03576100079695       -0.50996442700818
H           -2.70092025989151       -2.20398880787553        0.20074739926188
H           -1.46574172353626       -0.98844502935427       -2.28832180896912
H            0.94306715120912       -1.46881721382318       -2.31261864949189
