157
 energy: -34.080546407915 gnorm: 0.000717262426 xtb: 6.5.0 (97a52f5)
C            1.43163831280121        0.27724320438482        1.92187148203243
C            0.62872339720854        1.31334181083735        2.35627785441536
C           -0.64246249172944        1.46088024938919        1.84998875573558
C           -1.13837852587912        0.57774117236860        0.88729359383188
C           -2.50479611244491        0.71935437058353        0.34305413133857
C           -3.03865027270297        1.96867978677295        0.03357399651997
C           -4.49128687402388        2.13981245270279       -0.19301427900765
C           -4.95608482657157        2.91622363539658       -1.25660376242443
C           -6.30544419955493        3.08337515254660       -1.47057460764912
C           -7.22054342935518        2.48541583744498       -0.62660330850603
C           -6.78145286048047        1.72235657623487        0.43717598581588
C           -5.43308685025386        1.55323700851233        0.65537990713507
C           -2.18926929088221        3.16623202406374       -0.09553597935825
C           -2.65575259698140        4.41431951369308        0.33243465754287
C           -1.89635006371842        5.54476812466504        0.17604189504976
C           -0.63952697118126        5.48270827050664       -0.42520324570338
N            0.11774291488149        6.67285612003037       -0.65922610974921
C            0.04680807155575        7.76579127008174        0.26501471827307
C            0.08503915897491        9.08188128846636       -0.19270934285921
C            0.02080074613711       10.13576714425909        0.68359991695267
C           -0.06931871141732        9.92234671523211        2.06393319789552
C           -0.15613090341717       11.04023147862179        3.00924365827230
C           -0.63402672582843       12.27994242924828        2.62941112369766
C           -0.72861571026186       13.36058408008894        3.51197920772594
C           -0.34309152119183       13.28246100872684        4.83649769435339
C           -0.43035253651307       14.43726086407384        5.73632632022161
C           -1.33113242655239       15.48311722391858        5.50349505154916
C           -1.38268256107293       16.57225685295769        6.33669898029337
C           -0.52779926647189       16.67403176417533        7.43370619071892
N           -0.54048424610924       17.83565502008847        8.27371585109757
C           -1.78389134033718       18.40701047963089        8.68847682989612
C           -1.86847157793721       19.75910965505385        9.01922524209986
C           -3.05219246296635       20.30708105180156        9.44115534658097
C           -4.21046633719433       19.52819136986995        9.54836312550348
C           -5.48404548611562       20.09803338897636       10.02414387767701
C           -5.89318228836684       21.37937916448667        9.65954324093220
C           -6.98731802201086       22.06686994892796       10.37722291302477
C           -7.93414747140519       22.81758141015660        9.67627146140413
C           -8.95084295915160       23.46788662498052       10.33811932923385
C           -9.04388700909211       23.39004168077272       11.71374312075597
C           -8.11258724996484       22.66175385002051       12.42725179187897
C           -7.09395531348171       22.01076956903334       11.76942167095603
C           -5.26178976633244       22.09622798478134        8.53161514322976
C           -4.99097252908382       23.46366421786638        8.62146913380824
C           -4.41247339032359       24.13952670341727        7.57118795247001
C           -4.09616506380768       23.46979514972869        6.40557189477232
C           -4.36466050191113       22.12000965541846        6.29187636825293
C           -4.94447197927238       21.44067074625776        7.33891642874474
C           -6.31763262623348       19.25528489707850       10.91044710781875
C           -7.69784812811980       19.14912203597779       10.72454764557628
C           -8.46245625986708       18.35859179957934       11.55219661521332
C           -7.86801373717655       17.65145698770785       12.57857877367647
C           -6.50326223394587       17.73421113598375       12.77265246420589
C           -5.73490963488794       18.52392924459690       11.94759128073789
C           -4.11656359977443       18.16979670740571        9.22561097990976
C           -2.93257625608294       17.62407505103533        8.80108728156598
C            0.68973548081799       18.35280205340889        8.80525340778821
C            0.79857284249061       18.61005992030822       10.15621784702688
C            1.98159870904926       19.08834915999166       10.71225803893800
C            3.07228983907739       19.32184522610469        9.92582784933946
C            3.01728473604201       19.09110471274698        8.53402953419997
C            4.12552927304505       19.34362875244729        7.69422336833047
C            4.04192662269470       19.13706118443247        6.34974655732029
C            2.85204956031154       18.67477670768206        5.77987117700283
C            1.76680309236600       18.41879965357612        6.56468638778153
C            1.81713502232562       18.60629730960945        7.96000573632641
C            0.36772404872308       15.63413294652784        7.67574512017383
C            0.40301491651946       14.53738675495057        6.85404426452885
C            0.17091348026318       12.01745336233816        5.29571764378127
N            0.59753353523028       11.72326742558537        6.50759064607073
S            1.06064302863657       10.14974682389785        6.52606099481770
N            0.72401249235437        9.80111861358386        4.95884556791515
C            0.24752159745460       10.88715884618128        4.38372184875653
C           -0.07921012746202        8.59891967716523        2.51414267934333
C           -0.03458078576901        7.54445938794118        1.63863228307256
C            1.00515998642335        6.76762664622682       -1.78462148729913
C            2.29955728812254        7.20490891730833       -1.59439498192047
C            3.20463434080575        7.27690690894433       -2.64945042132506
C            2.82731792359408        6.91955487229272       -3.91147369048377
C            1.50947916449562        6.48483073707383       -4.17215286534104
C            1.08738656479576        6.12984798539447       -5.47333293685426
C           -0.19774540495832        5.74084516397172       -5.70640114508092
C           -1.12181980869448        5.69396759768685       -4.65834759622228
C           -0.74342741799575        6.02703594438571       -3.39140646763818
C            0.58047539351231        6.41529014096723       -3.10580631923724
C           -0.16755258100371        4.24161107186075       -0.85201247407347
C           -0.92488947515734        3.10994141640322       -0.69402752424186
C           -3.29374022779475       -0.51611889653857        0.15113778051321
C           -4.07557982372994       -0.71037457335766       -0.99062512913586
C           -4.80186667690324       -1.86675540109514       -1.16164758476570
C           -4.75969004763947       -2.85971607004126       -0.20295019777331
C           -3.98446068876640       -2.69320481960493        0.92766960774057
C           -3.25735768300693       -1.53772447200937        1.10312463866049
C           -0.31332397032714       -0.46951325827024        0.47046423769089
C            0.95686277952881       -0.61448238629541        0.98042618859830
H            2.42708642329388        0.16325069664844        2.31899147101996
H            0.99827800503288        2.00813562944600        3.09257534612744
H           -1.27129263572296        2.26422692398080        2.19278699966540
H           -4.24063828096237        3.37947466200354       -1.91429300323699
H           -6.64817669712075        3.68172572793581       -2.29889580919900
H           -8.27678921927348        2.61557415740276       -0.79666507389535
H           -7.49564594248174        1.25917202297998        1.09825192571202
H           -5.08859291326548        0.96367640353402        1.48725433589697
H           -3.62844713864080        4.47601646566222        0.78910948053921
H           -2.27385789163593        6.50126483228778        0.49239578938633
H            0.15558861532355        9.25682226842929       -1.25206285908797
H            0.06654561074543       11.14202446875837        0.30634400801490
H           -0.97039700130057       12.41482472396644        1.61671375665687
H           -1.09095672387665       14.30052468724093        3.13489327247371
H           -2.00799638608266       15.42125875169409        4.66978443180708
H           -2.07280307348938       17.37488788184183        6.14286119696592
H           -0.98774372829851       20.37053173217867        8.92975305252642
H           -3.10034411079693       21.35020849389440        9.70081678421055
H           -7.86230282121974       22.87405039801719        8.60373902727982
H           -9.67622001933804       24.03836557546935        9.78136187788732
H           -9.84179374692916       23.89830344511147       12.23015325583306
H           -8.18382337908156       22.60231836791867       13.50102742022533
H           -6.36415915462344       21.44860091823706       12.32582114158503
H           -5.23530596483393       23.98338425311666        9.53193250124066
H           -4.20587215692775       25.19371496457125        7.65846340431372
H           -3.64268695629376       24.00044387201525        5.58432775783376
H           -4.11962445577700       21.59732518663798        5.38174860611803
H           -5.16060602111653       20.39020340330325        7.24846324310582
H           -8.15884017022149       19.69698274060597        9.92100158584920
H           -9.52712234011087       18.29135491913419       11.39860122281291
H           -8.46841326009221       17.03366180707470       13.22623386647674
H           -6.03847449840663       17.17950831116320       13.57138541269385
H           -4.67129454178820       18.59288142711742       12.09849337287809
H           -4.99543111534142       17.55431974758254        9.31057686830767
H           -2.87185652743193       16.57579737455293        8.56729017502380
H           -0.05210664316615       18.41664050318114       10.78603857225179
H            2.03505713728255       19.27170177706056       11.77293893572805
H            3.98633202418085       19.69123034510817       10.35769625586848
H            5.03900683206605       19.70700948795760        8.13252517872562
H            4.89378984859035       19.33426818361204        5.71967065592938
H            2.79511119730823       18.52113482510074        4.71466028074520
H            0.85244177532559       18.06970639769458        6.12141277455703
H            1.02508129542615       15.70365152002404        8.52466520231715
H            1.07955681786276       13.73023690085272        7.06678192560438
H           -0.11325470955774        8.41513387514254        3.57215563760497
H           -0.03545498353572        6.53182578504672        2.00241464527047
H            2.60920372307609        7.47492808421688       -0.59990621521697
H            4.21161073112967        7.61348966921765       -2.46430393694057
H            3.52934974863531        6.97366869160391       -4.72551253891545
H            1.79701043073171        6.17529539862859       -6.28141010548303
H           -0.50751628680168        5.47290497042315       -6.70329950107134
H           -2.13762180713413        5.39278277177749       -4.85560819202659
H           -1.45951568751071        5.99822413187069       -2.59052054648535
H            0.80050583802973        4.18823741223846       -1.31829335491262
H           -0.55575592784797        2.16171118303426       -1.04377288652746
H           -4.10229234983008        0.06091787536269       -1.74073245002381
H           -5.40459325869002       -1.99754395909610       -2.04546730453652
H           -5.32937135403319       -3.76464797347324       -0.33795103418910
H           -3.95011755697052       -3.46919522801434        1.67482689194752
H           -2.65689450997859       -1.40396066220985        1.98638234090730
H           -0.68422891286811       -1.16215753555807       -0.26528464070867
H            1.58204040491495       -1.42549067662392        0.64429442489070
