145
 energy: -31.305131863230 gnorm: 0.000442524492 xtb: 6.5.0 (97a52f5)
C            0.44103449332182       -0.38980388373770        1.90548013379896
C           -0.33766277860122        0.67010124946110        2.32633911615500
C           -1.45876846171432        1.02897596526733        1.61338897339186
C           -1.82224090708219        0.34009391839671        0.45288674046801
C           -3.02427842901258        0.71787134075717       -0.32128108280475
C           -3.33957186638177        2.05507204432755       -0.56042536748581
C           -4.69411537295631        2.45251595663355       -1.00319802282768
C           -4.86277825831474        3.42197253340578       -1.99393446580262
C           -6.12138368305521        3.80165177169173       -2.40239796042817
C           -7.23904932821287        3.22807959341444       -1.82882103016294
C           -7.09418496123402        2.27488534924577       -0.84030023991021
C           -5.83768209327576        1.89322405045643       -0.42818413446912
C           -2.34649898020870        3.12500532375913       -0.35517509683368
C           -2.72708112070327        4.35859743676315        0.18561043518507
C           -1.80180466825187        5.34341815268744        0.41958649031690
C           -0.45372300170473        5.14558875091116        0.11914710221785
N            0.52574788285179        6.13563829215801        0.43586821692195
C            0.34965436691940        6.99815307124592        1.57184305357461
C            0.77567650474641        8.32271826878043        1.52150903788794
C            0.62158100228291        9.15166940281617        2.60973280481193
C            0.04306695256098        8.67215107770592        3.76879232083582
C           -0.37840012599084        7.35839537751983        3.83640872837852
C           -0.22544496265349        6.52746817415831        2.74945062937058
C            1.75579406018837        6.19591012521524       -0.29847619910867
C            2.97478392851705        6.31180548224916        0.36889707443500
C            4.15803423351146        6.32714367395226       -0.32462419091523
C            4.17639616719440        6.24668523235836       -1.72171835669972
C            5.43860331125430        6.22323041809621       -2.46779646968993
C            6.60478936412945        5.74542705018182       -1.90172417502520
C            7.81964659065356        5.70250158430357       -2.59196394392338
C            7.95751641666314        6.14563266168014       -3.89327628254971
C            9.24926325709385        6.10300412884285       -4.58611355492804
C           10.23048014765538        5.16718604168846       -4.23955081579251
C           11.44959420816862        5.15551375905162       -4.86799824726023
C           11.75325786667071        6.08927343108091       -5.85821903973769
N           13.04259210293991        6.09250248305815       -6.48485625128489
C           13.65055026077371        4.83810364593921       -6.83478361635288
C           15.00794297913843        4.61343075452396       -6.62069346668907
C           15.58035781300929        3.40662618055296       -6.95427803592192
C           14.80790822422710        2.40186638710115       -7.50375620985005
C           13.45848518679220        2.60741045410159       -7.71552691804115
C           12.88379559265061        3.81326612010863       -7.38277507226059
C           13.74734909443832        7.31893712454348       -6.68166258049584
C           14.68418875733187        7.45463503046180       -7.70628071608401
C           15.39354732795803        8.61763789204708       -7.86147480394712
C           15.19376564164247        9.70574403288436       -7.00331851482024
C           15.97822068823317       10.94683267727073       -7.13214037705744
C           16.32741712434285       11.46616490957579       -8.37801228768399
C           17.38112474799453       12.49430309558957       -8.50956207867565
C           17.22765968285189       13.55990272593394       -9.39973654787464
C           18.21027279112112       14.51422169754250       -9.53550522902776
C           19.37071797454746       14.42526253591339       -8.79209947920821
C           19.54736080805662       13.37457545657029       -7.91362049158380
C           18.56755872460446       12.41808196036618       -7.77507252630281
C           15.64918214331547       11.02178519113051       -9.61361578035738
C           16.37519736372359       10.81852921122055      -10.78960308127647
C           15.74735116770258       10.41476575766410      -11.94606019916916
C           14.38159571701845       10.21016153903978      -11.95852689477996
C           13.64346883714035       10.41470074381447      -10.80949224922101
C           14.26691193020009       10.81947410755020       -9.65128506366671
C           16.38850492467534       11.62569474184647       -5.88255362814159
C           16.28109871394265       13.01110460280302       -5.74084333744205
C           16.65227157977942       13.63170588023883       -4.56966404984748
C           17.13287751296861       12.88522510468210       -3.51197763704915
C           17.23942359957840       11.51335884266075       -3.62870067271757
C           16.86995105462889       10.88873185142054       -4.79838975333947
C           14.25115456689186        9.56466519914298       -5.97875255549119
C           13.54192756705629        8.40150987116353       -5.82584863383128
C           10.77593747043755        7.01668150559173       -6.21827734611099
C            9.54905541203044        7.01174400611689       -5.60530924146367
C            6.78022332226948        6.66773519523201       -4.53858896454294
N            6.68806208932902        7.14807127231195       -5.76223441162533
S            5.13044803513113        7.59185547909763       -6.02683544820688
N            4.52756365629144        7.17712733880741       -4.55797202657262
C            5.51053188585456        6.68773659830065       -3.82941933041008
C            2.94782748804158        6.17090856468235       -2.38452987863738
C            1.76498619931894        6.13116419973951       -1.69153031575789
C           -0.07619789969730        3.93269833840953       -0.45768506591034
C           -0.99949131097503        2.94730426282930       -0.69238865640646
C           -3.88788779503909       -0.37558189249285       -0.81323186912994
C           -4.46306943369880       -0.33456297809400       -2.08607967132746
C           -5.25592303527828       -1.36537831717543       -2.53675199732756
C           -5.48840602239595       -2.46377129866828       -1.73269816997587
C           -4.92170897552876       -2.52925712391338       -0.47508515582524
C           -4.12856428015665       -1.50035630652936       -0.02035541033430
C           -1.02769639971972       -0.73681123672020        0.05234211860658
C            0.09176143588389       -1.09340179678560        0.76956807974089
H            1.31961259223150       -0.66886758338093        2.46395294427288
H           -0.06673466894058        1.21814528058441        3.21394829421884
H           -2.06905941975591        1.85190055653057        1.94315538411033
H           -3.99009498812461        3.86594560150833       -2.44119398494518
H           -6.23477008492711        4.54782877349406       -3.17181170522877
H           -8.22370535278473        3.52516993875291       -2.15103531057351
H           -7.96604835855174        1.82864500515760       -0.39044349595253
H           -5.72308572937444        1.15498595903451        0.34657728143102
H           -3.76114551188645        4.51765319880384        0.43811926061991
H           -2.10637934105732        6.28505177949202        0.84154331525837
H            1.22280286800063        8.68918817084862        0.61393483314528
H            0.95264263646538       10.17600103067894        2.55694062136404
H           -0.07727122357690        9.32183246777307        4.62027170328038
H           -0.82529549099992        6.98247213589191        4.74228228126165
H           -0.53688837740219        5.49881517884888        2.80140124302628
H            2.97136665630997        6.37079932449588        1.44327700292180
H            5.08633013962419        6.42386439015459        0.21037528434542
H            6.57164603955918        5.36637386265363       -0.89553581242585
H            8.68983817797529        5.33378868413633       -2.07816006487561
H           10.01526667473218        4.43257985627036       -3.48368147205817
H           12.19840157848942        4.43363913933214       -4.59235389913448
H           15.60089183448055        5.39484406665724       -6.17842277931243
H           16.63242304248086        3.24511336640441       -6.78485195941606
H           15.25729190801789        1.45786879043263       -7.76546875868897
H           12.85475715159269        1.82321711297789       -8.14236179905193
H           11.83439124971601        3.98327301917525       -7.54938148558258
H           14.84005035927733        6.63024628913674       -8.37969098334616
H           16.12414400746493        8.70158323883887       -8.64694944994326
H           16.32139990030629       13.62933002937894       -9.97639641638858
H           18.07362912328258       15.33281303343912      -10.22314160945411
H           20.13862769748996       15.17399462216121       -8.89891375806072
H           20.45442117230852       13.30283704586488       -7.33593629014238
H           18.70819944047215       11.59484771775175       -7.09628430321530
H           17.44010465427183       10.97513031198118      -10.77682632191024
H           16.32289117769660       10.25793055158285      -12.84370482469905
H           13.89187537980157        9.89316596421096      -12.86480469461622
H           12.57742187185317       10.25648352251944      -10.81917592127449
H           13.69171581811665       10.98442200147480       -8.75666339391039
H           15.90025734462937       13.59069340077008       -6.56389737697425
H           16.56636283469700       14.70213005602486       -4.47782449208631
H           17.42228901799997       13.37262830198713       -2.59527823585861
H           17.61222553958133       10.93036949133856       -2.80236374199051
H           16.95432721724753        9.81972035242852       -4.89262139019147
H           14.08757741655012       10.38930494749081       -5.30667907888530
H           12.83076827794157        8.30181658635887       -5.02488446274874
H           10.99609340653037        7.72594503150330       -6.99696557362819
H            8.79382674535225        7.71439124378122       -5.90719462213060
H            2.94295639557964        6.14655599133952       -3.45905654040222
H            0.82629705402398        6.06542125041379       -2.21344115292361
H            0.96111378788486        3.76910373251451       -0.69086127267638
H           -0.69148409727397        2.01448982194800       -1.13167865260873
H           -4.27594504491887        0.51828617762166       -2.71522973366648
H           -5.69560382855888       -1.31536774853561       -3.51948280165393
H           -6.10970256006008       -3.27002058532250       -2.08715858592446
H           -5.10122388862706       -3.38752153735228        0.15165557216109
H           -3.68886046952961       -1.54845147541327        0.96099331372966
H           -1.29972141148247       -1.28139417029515       -0.83542019324723
H            0.69796585947672       -1.92241472944328        0.44267938562240
