144
 energy: -31.150346156181 gnorm: 0.000623487645 xtb: 6.5.0 (97a52f5)
C            1.06142497764959       -0.22562765549250        1.29508053831280
C            0.29694291663595        0.75651266372099        1.89336474210766
C           -0.95673417484636        1.04824397279098        1.40637104669032
C           -1.47269452165142        0.36846743391859        0.29950531708310
C           -2.81768421633859        0.67471057829293       -0.23368576188324
C           -3.26342229334459        1.98950836440674       -0.36744537023196
C           -4.70035337303006        2.29048736832496       -0.55301334268995
C           -5.11264922087831        3.24852213233474       -1.48160434231438
C           -6.44732487314420        3.54112826230932       -1.64827869289737
C           -7.39990319768335        2.88919247921558       -0.89020779352742
C           -7.01265752008440        1.94438923393215        0.03938390189910
C           -5.67919309445072        1.64947556200159        0.21005083736997
C           -2.33117282414457        3.12869847539274       -0.30721597567636
C           -2.71758698464332        4.33700014766104        0.28401752933554
C           -1.84648343671172        5.39270799856761        0.37197946799405
C           -0.54558849417218        5.29196669297966       -0.12163106286075
N            0.38685418210683        6.36226873379317        0.00990242520198
C            0.19772734131723        7.41083071929079        0.97877986717443
C            0.51035188142843        8.72867176789057        0.65701907962310
C            0.35295511751008        9.73451462992442        1.58362566741260
C           -0.10938484776090        9.44160326631307        2.85178534764014
C           -0.40691935468669        8.13644481386105        3.19211126434010
C           -0.25084055954295        7.12904819826396        2.26689327432823
C            1.64328611241078        6.30267041637341       -0.70522599594341
C            2.72442597989176        5.60840501222335       -0.16398148761350
C            3.90176787297250        5.50534252471489       -0.85664486289712
C            4.06904033855775        6.10803386038981       -2.10586428361434
C            5.35110809378407        6.01013117752871       -2.81023638190820
C            5.73062993123899        6.90440262119735       -3.78476306033093
N            6.89209474749151        6.92073094091219       -4.46498703609237
C            7.79658457928536        5.98263513661803       -4.21002999805912
C            9.05483908728801        6.02410425713635       -4.94189394147865
C           10.02611129358429        5.02669895905342       -4.82368631603255
C           11.20284178318522        5.09406246374899       -5.52160793008708
C           11.47231615841728        6.17405074819842       -6.36212005150692
N           12.71535673154235        6.25273844301424       -7.06835241951111
C           13.30892097437488        5.04621914500269       -7.57675609557641
C           14.67526911856860        4.81118666312442       -7.44682481334239
C           15.23581803091918        3.64783664203867       -7.92372413499630
C           14.44257243844291        2.69773173262317       -8.53697029724112
C           13.08495044254501        2.91489038133179       -8.67009089360625
C           12.52202332395670        4.07730923088388       -8.19363143062198
C           13.41186715228279        7.49501201134437       -7.17995775144728
C           14.26991547932044        7.74096993761461       -8.25200112252318
C           14.98254812330967        8.90957726213499       -8.32961724223187
C           14.86481085929555        9.89530243370884       -7.34222399929648
C           15.66469354225123       11.13210810770385       -7.38387161046875
C           15.96162765111723       11.77408259524704       -8.58580481907655
C           17.03216794180175       12.79020605610033       -8.66516731695350
C           16.85920862054316       13.94720323602880       -9.42869697532921
C           17.85596731702251       14.89253739102795       -9.51463411903325
C           19.05006740392102       14.70379982979149       -8.84710522660394
C           19.24616142622391       13.56240195111559       -8.09509441238179
C           18.25240224067754       12.61445426001173       -8.00702927857382
C           15.21273189165901       11.47547936253102       -9.82435843553409
C           15.87570660509986       11.38214019888473      -11.05044132661069
C           15.18299301889189       11.11456661760353      -12.20928924776764
C           13.81348942921380       10.94027456579061      -12.17363917910236
C           13.13699147302480       11.03872125622507      -10.97379217996965
C           13.82550843894615       11.30681703161042       -9.81273900100703
C           16.15850415807343       11.66701483436917       -6.09526909174800
C           16.09932235592080       13.03220069646419       -5.80558706797409
C           16.55376213513960       13.51857407600005       -4.60087220586059
C           17.07045809700484       12.65522603157347       -3.65511230528217
C           17.12958145397042       11.30086108946990       -3.91783238814504
C           16.67787187892442       10.81048757056129       -5.12203175278127
C           13.99881650066437        9.64488255679909       -6.27165192726617
C           13.28801477763674        8.47511859979120       -6.19472334931282
C           10.50608622024125        7.17306746368423       -6.48790828395437
C            9.32319606808892        7.09562493664077       -5.79724663667284
C            7.54725475881453        4.96326241760603       -3.22206003468895
N            8.33470387306754        3.97116594425718       -2.85453454679066
S            7.57266928513989        3.11221276097972       -1.68059974237424
N            6.19843398917542        4.00853594819983       -1.61322191030697
C            6.29919770137882        4.98205483185848       -2.49474632553519
C            2.97893624146119        6.80252337036652       -2.64292652158321
C            1.79102496973495        6.89218254910661       -1.96105950786898
C           -0.17258633277044        4.10640709493280       -0.75490028089383
C           -1.04291702142038        3.05199511572379       -0.84896310001229
C           -3.67795287546595       -0.46851442996967       -0.60276153790825
C           -4.48041995542336       -0.43888692933225       -1.74639875272815
C           -5.27044428317778       -1.51415555442764       -2.08356177618184
C           -5.27333797070385       -2.64695301712014       -1.29391575257889
C           -4.47879816494612       -2.70222503763552       -0.16578818836940
C           -3.68796459278463       -1.62868799257719        0.17546614258621
C           -0.68752089692023       -0.62971991097448       -0.28254625724011
C            0.56506859318142       -0.91929321874823        0.20896692018788
H            2.04388094815877       -0.45129327316710        1.67650932761813
H            0.68379111517281        1.29626194797966        2.74222228007098
H           -1.55472053217613        1.81106826032193        1.87426000734859
H           -4.36859578297356        3.75392366988650       -2.07294163536109
H           -6.74982624794549        4.28063035885193       -2.37162304898893
H           -8.44453710486736        3.11894146237645       -1.02268368429965
H           -7.75596002651988        1.43750272785851        0.63282816588565
H           -5.37548589268999        0.91805460386003        0.93887570157309
H           -3.71185102159139        4.42292736213513        0.68699499790312
H           -2.16459445191221        6.31736513452614        0.81972886370484
H            0.87472132368730        8.94950815487624       -0.33052746262104
H            0.59215108236516       10.75170866151338        1.31956629255421
H           -0.23255672243024       10.22958902582889        3.57666557716950
H           -0.75755867173739        7.90568916284724        4.18480250137180
H           -0.45613029468791        6.10730359083180        2.53482234368021
H            2.60966295835546        5.14175165635116        0.79882720639200
H            4.71735685149904        4.94233605028551       -0.44241074204507
H            5.05663656321635        7.70754885493894       -4.02656298389882
H            9.84285179551268        4.19785099819366       -4.16767142092305
H           11.94503763623728        4.32250157233897       -5.41436195179444
H           15.28522769935607        5.54917025001536       -6.95574987063308
H           16.29449790617307        3.47710042664130       -7.81592256298638
H           14.88241474554037        1.78718194215625       -8.90976112097783
H           12.46530712365647        2.17345208527404       -9.14742261961058
H           11.46572586197945        4.25529487707242       -8.29594445154227
H           14.36422967035946        6.99528814337611       -9.02177052816302
H           15.65432991944074        9.07516899005544       -9.15354028568894
H           15.92673351138157       14.09442353491694       -9.94584585030398
H           17.70425351417933       15.78207071166235      -10.10393459608710
H           19.82931518729422       15.44532747904915       -8.91464832439638
H           20.17907838832485       13.41335945002907       -7.57641361225375
H           18.40809992653969       11.72120429121863       -7.42731075622833
H           16.94351305932708       11.51569656353912      -11.07578786148428
H           15.71026866573281       11.04042191415222      -13.14634103595353
H           13.27303581807311       10.72980029238286      -13.08206470406282
H           12.06787966294826       10.90540488335165      -10.94637976019822
H           13.29851282888530       11.38940529990527       -8.87794430161509
H           15.69117369841425       13.70336106445247       -6.54131364133473
H           16.50615946582824       14.57540869676969       -4.39490449773753
H           17.42546826042976       13.03752622203756       -2.71201903702440
H           17.52998255537895       10.62670150484113       -3.17835264767836
H           16.72615393033139        9.75536016813092       -5.32969714690935
H           13.89908158558700       10.38866005409525       -5.50011956845627
H           12.64275416620871        8.28773334092981       -5.35460734566288
H           10.69942858975716        8.00169100964167       -7.14649546637174
H            8.58014864869485        7.86710481226065       -5.89942026969326
H            3.06437466581317        7.24888827863574       -3.61768567469445
H            0.95105755035687        7.41067336920382       -2.38940134812431
H            0.81980563461532        4.02260103086598       -1.16029192600770
H           -0.73656640875743        2.14409233041036       -1.33848198992068
H           -4.47202431034015        0.44054459590996       -2.36658821745195
H           -5.88785190871267       -1.47239307293310       -2.96594561015167
H           -5.89312502400538       -3.48804094407482       -1.55860516244449
H           -4.47864114671658       -3.58762336056447        0.44875069730842
H           -3.07087428730413       -1.66910333007840        1.05649622109092
H           -1.07349859281470       -1.16512667120345       -1.13286601836964
H            1.16115586673320       -1.68778231430854       -0.25544655233185
