102
 energy: -22.489769427041 gnorm: 0.000570837921 xtb: 6.5.0 (97a52f5)
C            1.22983851438762       -1.55614433707662       -1.58891472741612
C            0.97809735905737       -0.27052885206113       -1.15986229484348
C           -0.17510766809194        0.01057785752754       -0.45668790161997
C           -1.10441485868212       -0.98114257425495       -0.17895177107424
C           -2.37740947062837       -0.67656556211014        0.63273530611137
C           -3.05464637509130        0.62286571620533        0.16651515582820
C           -3.95312042277885        1.26893837659048        1.00204703723856
C           -4.63585825763643        2.39063529612418        0.57970075912231
C           -4.44241516207371        2.87588405463300       -0.69628571521945
C           -3.57044260534237        2.23255271604771       -1.54865083555000
C           -2.88772923919577        1.11298946395637       -1.12127062207132
C           -3.38290782906604       -1.81616466007925        0.41757124556311
C           -4.05876831770532       -1.87353809058474       -0.77516861768347
C           -4.89776905373099       -2.94017044584089       -1.14113318739873
C           -5.01854724522717       -4.01773136864938       -0.22428939723170
C           -4.35927613941332       -3.94506771683727        0.97822826181273
C           -3.54314493631945       -2.86322287490985        1.34508193721743
C           -2.88288235264908       -2.80644666459937        2.64098926637227
C           -2.99036036096959       -3.85475003846462        3.56726782623506
C           -2.45139340802872       -3.77337574076710        4.82431879085095
C           -1.77424220731497       -2.62206286478301        5.24273439190993
C           -1.23616752793708       -2.49913498304363        6.55549613337775
C           -0.59711422552306       -1.37147062300022        6.95144151205796
C           -0.43817585516492       -0.26759723102611        6.06359309535742
C            0.21063504402109        0.91134756453206        6.44441457071985
C            0.34639290412883        1.96030094176079        5.55843218714566
C           -0.15337651167121        1.86829247993132        4.27649031594691
C           -0.81055536774776        0.71041684908359        3.84784159312971
C           -1.32267340461634        0.57083491458068        2.52904511916104
C           -1.96234137672386       -0.55560706473863        2.10471678022571
C           -2.16026392941504       -1.64416467861917        3.01533650061596
C           -1.63080789448034       -1.54965089797866        4.32922448236494
C           -0.95665517737544       -0.36828476142016        4.74826636362311
C           -5.74011812088636       -5.30674457305650       -0.59538453584643
C           -5.40029297336564       -5.99199896622208       -1.91249157089860
C           -6.03282945766557       -7.11578941781920       -2.31237862543964
C           -7.02299061244291       -7.71559683423177       -1.48388602309224
C           -7.75191451619706       -8.88119092797136       -1.72003898518414
C           -8.58268781465677       -9.45562670806520       -0.76160083164727
C           -8.65809397766542       -8.96238514778434        0.59232776171465
C           -9.15636569132527       -9.65418631731982        1.71930309942513
C           -8.89301586360581       -9.19687878288428        3.01143515030112
C           -8.09147986931168       -8.09993750228099        3.25942681806442
C           -7.55635254379740       -7.37439912974153        2.15917884542632
C           -6.51523457698127       -6.44806339655281        2.05883260049196
C           -6.13903758341566       -6.32340132264131        0.56071827429029
C           -7.16872451021330       -5.48115984312177       -0.15298336426297
C           -7.30763418167679       -6.99223729331280       -0.19868097270386
C           -7.99509779230788       -7.77603807630441        0.86304210234217
C           -5.53444973445617       -2.91185542691770       -2.45397628706627
C           -4.78362848072226       -2.40402600825372       -3.59602988622696
C           -5.42862096260831       -1.84877466947747       -4.71219281032639
C           -4.70834731616457       -1.34675168323456       -5.76992121199994
C           -3.32643199170310       -1.38012574128195       -5.75015504510505
C           -2.66567025588491       -1.92141271643621       -4.66361835093577
C           -3.37922699167831       -2.42773588371164       -3.60428242275956
C           -6.93501967424511       -3.30300178766806       -2.60961707745310
C           -7.39354667721083       -3.95750632620575       -3.76412116573019
C           -8.70906526025266       -4.33586509896842       -3.88597453052876
C           -9.60742731903981       -4.06771612536894       -2.86992492178217
C           -9.18299401791724       -3.41620401725865       -1.72696807780331
C           -7.86819729756746       -3.03860911320895       -1.59488414438211
C           -0.82269001652242       -2.27296944973609       -0.60169066632405
C            0.32810289232553       -2.55918597346063       -1.30542214206785
H            2.13113268681355       -1.77704225962447       -2.13735656838584
H            1.68371470841747        0.51592105829934       -1.37306307446930
H           -0.36466729573568        1.01740824429815       -0.12849592169529
H           -4.12085646121068        0.87638475542144        1.99038726203459
H           -5.32575600699837        2.88295904098897        1.24555456292285
H           -4.97752455468468        3.75028177171744       -1.02937667725155
H           -3.42668946891306        2.59967635310787       -2.55184522192177
H           -2.22946204901499        0.59999822369858       -1.80085822984510
H           -3.94150370547050       -1.06691923659387       -1.47458827641872
H           -4.46073536818118       -4.77637204922756        1.64696464146206
H           -3.51133926101890       -4.75369677360549        3.29435434284984
H           -2.55653725201288       -4.59429963329627        5.51278100257375
H           -1.35119944875725       -3.32367116724168        7.23774062317617
H           -0.20018739518154       -1.29349904066992        7.94881468937497
H            0.60513005294770        0.99158491001828        7.44265851551454
H            0.85022581307605        2.86046350471961        5.87072651789447
H           -0.03953188723837        2.68939440615867        3.58990472824247
H           -1.19087146203463        1.38997765220744        1.84680843859754
H           -4.64786490792168       -5.53973912333801       -2.53331831285836
H           -5.78895969748431       -7.57998194657080       -3.25172119744745
H           -7.63505220092978       -9.36595531174972       -2.67377000880494
H           -9.10572699265722      -10.36663474486178       -0.99252907077859
H           -9.70714267175471      -10.56612184283883        1.56794636096793
H           -9.29020197114676       -9.74976285482603        3.84681990845346
H           -7.83176093737761       -7.81161092097318        4.26256152474281
H           -5.95315062674172       -6.06091941462966        2.88663137821863
H           -6.50291353386925       -1.79035525408872       -4.72040167681167
H           -5.22238272244877       -0.92010603164800       -6.61584348475106
H           -2.76488541018339       -0.98283459776156       -6.57989063860722
H           -1.58819069973370       -1.94556910022602       -4.64591286761876
H           -2.85797022861235       -2.85857656789297       -2.76734125912632
H           -6.68988758263915       -4.19210206601810       -4.54404780006422
H           -9.04073140048815       -4.84826331057055       -4.77429968977759
H          -10.63755751578168       -4.36913854720469       -2.96764612569055
H           -9.88373275628099       -3.21075741298184       -0.93425008024293
H           -7.53554551898947       -2.53532193883964       -0.70346069940933
H           -1.51363765568177       -3.06400104762926       -0.36933683323054
H            0.52512993406968       -3.56865766528303       -1.62794534630395
