57
 energy: -12.013231395482 gnorm: 0.000406188701 xtb: 6.5.0 (97a52f5)
C           -0.39745112568981       -4.16862782604557       -2.10944448638187
C           -0.79735534637452       -3.23264265066764       -3.04266460636852
C           -1.92138237566194       -2.46911057514252       -2.81736924736628
C           -2.66549478738831       -2.62825197918819       -1.64964603542611
C           -3.86312466017447       -1.79122338413526       -1.39397812860528
C           -3.94774734866128       -0.90247904809048       -0.36387469205267
C           -2.93952376543146       -0.51602987379052        0.61009142832873
C           -1.57358958661183       -0.58124150289686        0.32718734460048
C           -0.63936346641864       -0.18032485171052        1.25553631917619
C           -1.04502218037705        0.30000177223317        2.48498283185639
C           -2.39075001516829        0.37945111301288        2.78341902824085
C           -3.32665186845616       -0.02200883141092        1.85774958249267
Si          -5.62316391740789       -0.14625537155335       -0.46895142868593
C           -6.61429574821873       -0.56397540634099        1.04664985517226
C           -7.10029227644419        0.43920013026276        1.85695562130236
C           -7.77016890968802        0.12208513623565        3.02220191936059
C           -7.95138552279670       -1.20123800813299        3.37304501614066
C           -7.46368920746019       -2.20573087821750        2.56043504916421
C           -6.79394452545245       -1.88454253879339        1.39597666395188
C           -5.53012705101707        1.67707401183226       -0.83600719108232
C           -4.36323492190658        2.37281882687009       -0.60383746707026
C           -4.30272607876750        3.72924219808465       -0.85376776520243
C           -5.41571111336778        4.38951612342633       -1.33524280688293
C           -6.58605943548691        3.69378609350318       -1.56552676502618
C           -6.64133237765645        2.33652337395487       -1.31498289421137
C           -6.17517209437066       -1.11484117366267       -1.92633443907507
C           -7.35169125998120       -1.17781002536379       -2.63309837730803
C           -7.45764222992069       -2.06015670030509       -3.69214859038421
C           -6.38948671511076       -2.87205960219313       -4.03135749804388
C           -5.20956511732543       -2.81236646208240       -3.31934816944178
C           -5.08559582721200       -1.92484129415043       -2.24934632948439
C           -2.24933506582016       -3.57841969993991       -0.71863800352643
C           -1.12508528596006       -4.34032655775761       -0.94838352908529
H            0.48296452420704       -4.76459707484998       -2.28707957889645
H           -0.22806939939813       -3.09815880120257       -3.94810962174444
H           -2.23394584451339       -1.73214329098529       -3.53734960901518
H           -1.25384881611602       -0.94535662943148       -0.63268427560454
H            0.41114308620983       -0.24142774763101        1.02192109999693
H           -0.31222851108687        0.61334657750238        3.21076265301710
H           -2.70909150225281        0.75720151124694        3.74144154749228
H           -4.37570042577816        0.04094768168540        2.08684405415188
H           -6.94794400947916        1.46668753801936        1.57227017649179
H           -8.15007272203359        0.90665811213627        3.65616939108007
H           -8.47372518278867       -1.45030203414519        4.28247771677082
H           -7.60291042203432       -3.23876197753643        2.83465365754783
H           -6.40132001154565       -2.65618806260560        0.75491377389712
H           -3.50506741933108        1.84744457152686       -0.22210146981988
H           -3.38865969321203        4.27080128679244       -0.67213872342371
H           -5.37094429430282        5.44855287733039       -1.53114941953132
H           -7.45589982006825        4.20840657887041       -1.94017017514916
H           -7.54870152341250        1.78286152140150       -1.48844442364348
H           -8.17674284741124       -0.54629341918571       -2.35200726726958
H           -8.37601457827019       -2.11651706164954       -4.25339244041494
H           -6.48074708685625       -3.55826102260957       -4.85753174301710
H           -4.38098155820884       -3.44846976700750       -3.57621509034569
H           -2.81852684756729       -3.70330205928122        0.18670313527597
H           -0.81171388694981       -5.07019384629865       -0.21975557687514
