71
 energy: -15.719775706220 gnorm: 0.000789944160 xtb: 6.5.0 (97a52f5)
C           -0.33171690710243       -2.73625514708865        2.30841393476829
C           -0.18339550223461       -1.37785805351520        2.11115152739824
C           -1.05696508523606       -0.70097792314994        1.28964344901962
C           -2.10188254864166       -1.36741471256036        0.65768798467923
C           -2.99840120060418       -0.61234466849188       -0.24095662339656
C           -4.37756027750949       -0.82215016861476       -0.25787852003818
C           -5.02321721047264       -1.77531733160538        0.67492235317948
C           -5.76324767592821       -2.85986899086275        0.19606490841223
C           -6.34737116699779       -3.75297874600506        1.06453273574015
C           -6.20710886961205       -3.58667942102758        2.42823523878478
C           -5.47997765232658       -2.52165549030132        2.92209147893763
C           -4.89473823479401       -1.62480140969242        2.05827334053292
C           -5.17810178472209       -0.06344337938359       -1.18196348399369
C           -6.56912934692739       -0.17979095782648       -1.24909832223886
C           -7.30307157363872        0.56486878524626       -2.14913825978606
C           -6.67453991357766        1.44599493721744       -2.99949029154630
C           -5.29096348776698        1.60848365815168       -2.96161530346168
C           -4.53880863364685        0.85112107059482       -2.04039242576734
C           -3.12464461226093        1.01583128183244       -1.96307482911675
C           -2.50561587810807        1.90497659021153       -2.81447652428802
C           -3.21239015619099        2.67165123462537       -3.76430054321147
N           -2.52961156629811        3.49928148448067       -4.55567895381518
C           -3.25802342991292        4.20574328028462       -5.42414793005960
C           -2.58774486429775        5.10160605198909       -6.31981807660090
C           -1.11989710832735        5.25417906568941       -6.28846272296047
C           -0.40683120813227        5.15927801842400       -5.09351242071287
C            0.95976950676668        5.32240654471632       -5.06385239381506
C            1.65001128170460        5.58174700243531       -6.23012993206330
C            0.96729644107688        5.67467292634949       -7.42591966784537
C           -0.40017149944814        5.51328354559374       -7.45644687589110
C           -3.33950673899341        5.83106145663631       -7.21909420712302
C           -4.71797546605982        5.71612032569014       -7.27674116610551
C           -5.40690159152689        4.86414778524490       -6.43677624761518
C           -6.87874020568014        4.77264072213432       -6.51355744804641
C           -7.54006558482252        4.83745901544684       -7.74071416778455
C           -8.91387696067802        4.76638098155575       -7.80786177103244
C           -9.65912732755549        4.62967571986829       -6.65397570080668
C           -9.02450854464293        4.56145453777151       -5.43036190685972
C           -7.65153289916191        4.63199470438877       -5.36126976873725
C           -4.67592001209438        4.08333233145123       -5.48944045858058
N           -5.35436653873518        3.23992248873984       -4.69743789403814
C           -4.62650788597898        2.53927831165335       -3.84656636956205
O           -2.37011787524205        0.30245517169020       -1.05081688243650
C           -2.22596493238832       -2.74210244320780        0.85270967185852
C           -1.35216396195360       -3.41699070321156        1.67499888426003
H            0.35263728667389       -3.26588286636172        2.95066525156072
H            0.61880148032078       -0.84704215375285        2.59709358458531
H           -0.94123303889529        0.35542058220854        1.11718831300603
H           -5.85664222336540       -2.99634615965852       -0.86769640415604
H           -6.91199710709215       -4.58639497488001        0.67969049140032
H           -6.66361281126444       -4.28879781926905        3.10655673089852
H           -5.36873356218445       -2.39397499433574        3.98640134302653
H           -4.32465743749937       -0.79514545325017        2.43950151456279
H           -7.07213479598354       -0.85556824867227       -0.58090471104494
H           -8.37465958709050        0.45721836003186       -2.18605978511238
H           -7.24202737668457        2.02688882976199       -3.70518496147340
H           -1.44007812480515        2.01687042554883       -2.75394570378400
H           -0.94291319034095        4.94663178626594       -4.18578925227904
H            1.49100516336366        5.24292121141240       -4.12956078685198
H            2.72033878713622        5.70646866728200       -6.20817820917396
H            1.50600571668291        5.87090503635714       -8.33848345150496
H           -0.92366230125112        5.56635908840055       -8.39508012758940
H           -2.84180675838560        6.52494876238972       -7.87378726477516
H           -5.27145925925273        6.31934552320052       -7.97522354035795
H           -6.96153901821609        4.92671314875747       -8.64374803324143
H           -9.40852944935282        4.81515818056650       -8.76419453074432
H          -10.73406312987569        4.57515081412505       -6.70905130859940
H           -9.60391176928302        4.45219604924229       -4.52815055136442
H           -7.15400876750122        4.57850084951722       -4.40882311230057
H           -3.01275743297136       -3.27431838393561        0.34766211209400
H           -1.46337460213180       -4.47892574460657        1.82167497496475
