57
 energy: -11.670457474316 gnorm: 0.000514322916 xtb: 6.5.0 (97a52f5)
C            1.69242450787489       -1.22446271507803       -0.03764968395305
C            1.32609716147909        0.09465503767755        0.14094988962168
C            0.05033035349575        0.50480832971136       -0.17582743040195
C           -0.88822400234541       -0.39751734964554       -0.66711677574914
C           -2.23420124728545        0.09151821995575       -1.02471643586983
C           -3.38654504388499       -0.65505533564083       -0.78048998332427
C           -3.32819710829239       -1.95164852620832       -0.06521713203854
C           -3.78559643780828       -3.12769624844222       -0.66674901527407
C           -3.71705321974105       -4.33081968321236       -0.00264989617210
C           -3.19255752454318       -4.38986831859943        1.27357442650343
C           -2.73577981880660       -3.23945922384378        1.88600906431355
C           -2.80239386144164       -2.03346460069807        1.22727331549687
C           -4.65898871520868       -0.11483195459083       -1.18742563956981
C           -5.86801508389542       -0.77607422539512       -0.94287708524936
C           -7.06910672583535       -0.22560962325307       -1.32849268263283
C           -7.10111207594339        0.99904861005465       -1.96304343863343
C           -5.92802439646556        1.69576830932100       -2.22187781721123
C           -5.96514502176425        3.00387912042325       -2.86083524741495
C           -4.69600989317751        3.64634342370418       -3.18059464111622
C           -3.49644789159884        3.05481454857239       -2.69865617113188
C           -3.47026979916405        1.84929820921123       -2.04354110152378
C           -4.69613411585024        1.13660672198362       -1.82452055850228
O           -2.25950552366031        1.33351096859141       -1.61475745996238
N           -4.62520387090535        4.71589490737891       -3.92261783765107
C           -5.83878523287087        5.13529687123925       -4.49170560339210
C           -6.11058148883909        4.47561822571901       -5.85920264439013
C           -7.29786243996620        5.15584198457950       -6.59659606476279
C           -8.21926406181279        5.95144122624779       -5.63631535086166
C           -8.41478162510821        5.22926711865066       -4.28791849825508
C           -7.06867962100270        4.89328531625220       -3.55798676812009
N           -7.10905591382201        3.57239832282300       -3.07519584571823
C           -0.49524355581603       -1.72149891308895       -0.85979797449679
C            0.78034587965292       -2.12992648485769       -0.54203088298615
H            2.69107395218315       -1.54513840230465        0.21020513607985
H            2.03997050744175        0.80523170171089        0.52420420432006
H           -0.24098111135308        1.53419927844986       -0.05491075289559
H           -4.17975870196924       -3.08089773284689       -1.66743302420047
H           -4.07056564262808       -5.22972652509517       -0.48067558577177
H           -3.13836310471760       -5.33376260948241        1.79094565702302
H           -2.32533363681821       -3.28642597327994        2.88138059804243
H           -2.44653846165286       -1.13440480874906        1.70029584263759
H           -5.85435918338149       -1.72307408031090       -0.43378920173631
H           -7.98928153155040       -0.74989314204004       -1.12957231517517
H           -8.03758826813592        1.43835275698499       -2.25938559201796
H           -2.56708700179775        3.55719850305310       -2.88651692599565
H           -5.74435840620429        6.22251803952596       -4.65379492165796
H           -6.33360763781094        3.41842311755092       -5.67948424819236
H           -5.19655657330277        4.48463265363036       -6.46384472871791
H           -7.88635990466168        4.40240662743369       -7.13451936063670
H           -6.90965676118267        5.82695073591621       -7.37350085317946
H           -9.19208764815527        6.13948943683557       -6.11058770803562
H           -7.79316903775339        6.94547452800017       -5.45465715081496
H           -8.93508945721126        4.28146278444540       -4.46229400585575
H           -9.07407279590165        5.80424501495648       -3.62603603941457
H           -6.95331646424636        5.54566020528974       -2.67693799208941
H           -1.20041811694582       -2.42418843378946       -1.26728655071246
H            1.06871240210987       -3.15765594543190       -0.69094551057783
