56
 energy: -11.885771853648 gnorm: 0.000314027077 xtb: 6.5.0 (97a52f5)
C           -0.18686489969678       -3.96888209111315       -1.97117360722768
C           -0.55914938745470       -2.97140554461141       -2.85036664521845
C           -1.71381301894808       -2.25391485038739       -2.63148622158863
C           -2.51545513143269       -2.52025890226264       -1.52270543179695
C           -3.75253800598117       -1.73727717938628       -1.27971801806776
C           -3.88298304040553       -0.80502219663842       -0.29046401094454
C           -2.94025189202001       -0.30758040114163        0.68990327353633
C           -1.57040215378996       -0.52636876875431        0.54643787577916
C           -0.69690274416888       -0.03850955746556        1.47863467488558
C           -1.21274885738822        0.66371435921517        2.54213237303246
C           -2.57130789507060        0.84623140254017        2.61270330283504
N           -3.43708352064466        0.39333088214146        1.72319946617623
Si          -5.59586748936059       -0.15055510603463       -0.41907225102418
C           -6.56793264196927       -0.48527567666110        1.12983613961550
C           -7.62869526330018        0.32891145175032        1.46158250517323
C           -8.34380491737665        0.09448211275074        2.61960110798776
C           -7.99411187702535       -0.95736925984185        3.44299069972179
C           -6.93165271277624       -1.77360545563715        3.10903049765382
C           -6.21951657325733       -1.53594794266180        1.94999828698797
C           -5.57170457959546        1.64369766807777       -0.90876916943566
C           -4.80817708581575        2.52070176723909       -0.17075186769560
C           -4.79039895194980        3.86325826413974       -0.48795162007469
C           -5.54014043203943        4.32644981006683       -1.55085378007481
C           -6.30456830212189        3.44763077406452       -2.29290333931773
C           -6.31963527989265        2.10503674068340       -1.96970573194158
C           -6.11287212578602       -1.24011301136643       -1.80124501426456
C           -7.29186478824903       -1.41293803930176       -2.48493702024210
C           -7.35048845393451       -2.34410802313434       -3.50509364483395
C           -6.23277993745897       -3.09340703061726       -3.82905129482508
C           -5.05022073678877       -2.92308161749278       -3.13996422950233
C           -4.97385905041093       -1.98542374085768       -2.10894088876564
C           -2.12775653337889       -3.53287874295707       -0.64668769070891
C           -0.97296446400532       -4.24895593494437       -0.87095861458769
H            0.71721916554545       -4.52956906250444       -2.14440477976379
H            0.05502751265055       -2.75347723925164       -3.70889993876978
H           -2.00842953025878       -1.47271858429180       -3.31118826135459
H           -1.20195924947674       -1.06967872999845       -0.30354908415434
H            0.36468153109866       -0.19941635455331        1.38296430685627
H           -0.56313887411540        1.06368609412007        3.30347366997132
H           -2.98669291250761        1.39620582960218        3.44279211213675
H           -7.88551356192230        1.14937278116868        0.81267676630557
H           -9.17088122295051        0.73413773101459        2.88116951315774
H           -8.54923485424409       -1.13968544453295        4.34878862269896
H           -6.65561552676954       -2.59260792342317        3.75293466787824
H           -5.38195182584340       -2.15749062654486        1.68141543609838
H           -4.21938509497465        2.13850872744322        0.64482351643462
H           -4.19058664427970        4.54682137521291        0.09047638022996
H           -5.52686030609172        5.37434144124369       -1.80304622194028
H           -6.88846381519315        3.80836021019116       -3.12392155036140
H           -6.90767692293669        1.40887586971418       -2.54286453526267
H           -8.15502098409950       -0.82902120338920       -2.21505516703782
H           -8.27049241975490       -2.48836534482525       -4.04756220692122
H           -6.28772768005795       -3.81863669492252       -4.62442235980406
H           -4.18193971131650       -3.50904464531272       -3.38492190773501
H           -2.74327450488976       -3.74295598938472        0.21114170351654
H           -0.68178982403080       -5.02829837613147       -0.18576079342579
