29
 energy: -5.596423570681 gnorm: 0.000824445097 xtb: 6.5.0 (97a52f5)
C            1.43844648370132       -0.10761146090158        0.07766048136260
C            0.89954837058042        1.16182724006062        0.03792207461075
C           -0.46623463036795        1.32979616773204       -0.06345221432452
C           -1.30795538391072        0.23095481333245       -0.12614263829652
C           -2.79006373467522        0.41362152375868       -0.23275550052043
O           -3.50503777085221       -0.81834477201513       -0.29710981173471
C           -4.91107667136531       -0.62738431018588       -0.43926252939395
C           -5.67911644927498       -1.91172325280735       -0.47727161141485
C           -7.06310405700836       -1.90779775975221       -0.40924096382178
C           -7.77081913311246       -3.09101914080220       -0.46321351703805
C           -7.10187693089313       -4.29113577236672       -0.58809898302369
C           -5.72434222922157       -4.30615484022841       -0.65864702534636
C           -5.01979990800521       -3.12095603089494       -0.60468689552619
C           -0.75593925296342       -1.03665114651145       -0.08572833046031
C            0.60945645695660       -1.20841269429556        0.01545268219467
H            2.50523316037036       -0.23905559350918        0.15738631104188
H            1.54551863193382        2.02322036888586        0.08663231942223
H           -0.89008932251953        2.31919002703992       -0.09341764834722
H           -3.03017381135146        0.99285360140691       -1.13030838188685
H           -3.15960219488897        0.97361971843271        0.63251988652932
H           -5.08411997644600       -0.06428110837111       -1.36226376025353
H           -5.25557444809129       -0.00946939405750        0.39637363978225
H           -7.58253670742479       -0.96925177281691       -0.31564124960254
H           -8.84718666545066       -3.07694006016642       -0.40947093222523
H           -7.65477767963529       -5.21522733934334       -0.63199959459953
H           -5.19841923676038       -5.24178254280893       -0.75640993342045
H           -3.94474426094480       -3.12041343139695       -0.65794652904453
H           -1.41279171076602       -1.88802663369800       -0.13350629708541
H            1.02679906238675       -2.20161440372000        0.04617695242328
