77
 energy: -16.610710910690 gnorm: 0.000281255932 xtb: 6.5.0 (97a52f5)
C            0.70987031742737        0.15903774897953        1.85635765519639
C            0.02313670670048        1.35749436213612        1.86260601563252
C           -1.14779884519702        1.48614216086398        1.15023486310160
C           -1.65411964400877        0.41572604664053        0.41770060142799
N           -2.86982257696966        0.54642011406157       -0.33420569078543
C           -3.17054859289650        1.78058026892163       -1.00234948179222
C           -4.47948762618003        2.25201943367202       -1.06370330233457
C           -4.76905068812738        3.44173534848569       -1.69249266933280
C           -3.75760715908470        4.18205640608618       -2.27256056129757
C           -2.45439061981659        3.72714681495997       -2.22157384117661
C           -2.16221125365480        2.53794075314355       -1.59261578024637
C           -3.78648492426930       -0.54949787605413       -0.40600511627950
C           -4.48596553616916       -0.82281988766479       -1.58138983968872
C           -5.36282340620659       -1.87537202707810       -1.65192217663998
C           -5.59508577594501       -2.70002210966675       -0.54347485873031
C           -6.52104435460218       -3.83284208889694       -0.61146206399777
C           -6.82837282611403       -4.44226688762935       -1.81203913117188
C           -7.70952995946269       -5.52319285033895       -1.91556394847424
C           -8.35958898239296       -6.07283732217635       -0.82797466292970
C           -9.29352846171765       -7.19074579998232       -0.98064999146952
C           -9.22674766257456       -8.05876268522768       -2.07831287239417
C          -10.12665610875055       -9.08327343623369       -2.22805776381127
C          -11.14636281703816       -9.28417979936373       -1.29772998121420
N          -12.09760315545584      -10.33936349778000       -1.46681464242521
C          -11.67609351179417      -11.60881740995294       -1.98750595714275
C          -12.49720505003150      -12.33994732823371       -2.84193432745095
C          -12.09126833252835      -13.56118122133097       -3.33075552037235
C          -10.85903051392007      -14.07462600935274       -2.97595733816306
C          -10.03258418932645      -13.36070906757026       -2.13043466985239
C          -10.43596511119651      -12.13912381568104       -1.64088507226074
C          -13.47345980533931      -10.12688037704710       -1.11803826025318
C          -14.23866931137281      -11.15189618961702       -0.56794052130608
C          -15.56032770287060      -10.94463297631263       -0.24316158371983
C          -16.14216150195869       -9.71097069774168       -0.46091850585279
C          -15.39605859910263       -8.68373073536269       -1.00456236585291
C          -14.07444404933141       -8.88860207184025       -1.33003307027653
C          -11.21428054374316       -8.43064366766137       -0.19727554639623
C          -10.30251956012898       -7.41979182129190       -0.03912228236024
C           -8.09709517092520       -5.48727796165224        0.46952729169201
N           -8.62456390222045       -5.87567951025589        1.59410698344878
Se          -7.98467788890260       -4.85828228148099        2.93118156669500
N           -6.97446903527475       -3.90568191217990        1.78911218359191
C           -7.15011944788907       -4.35815683355938        0.58157256143699
C           -4.90392545813718       -2.40377964446057        0.63609958908741
C           -4.01222693694488       -1.36507704160270        0.70219573092254
C           -0.95153868352291       -0.78658799294671        0.42352188992647
C            0.21968577990498       -0.91232185704667        1.13557972689963
H            1.62721238268266        0.05980118332031        2.41323007866059
H            0.40420495502848        2.19294051327014        2.42680046198989
H           -1.69206387569053        2.41423282840701        1.15774754478050
H           -5.26096334211836        1.67622384893835       -0.59948162921608
H           -5.78587185416720        3.79706385797166       -1.72962906678464
H           -3.98505044043702        5.11394761224650       -2.76381640315208
H           -1.66505464853545        4.30401564212254       -2.67507713123741
H           -1.15020535289761        2.17448112193256       -1.55571143819284
H           -4.31659961806590       -0.19704779078065       -2.44014500777964
H           -5.90260700013748       -2.05312988921975       -2.56506561041516
H           -6.35043252780991       -4.08643849855130       -2.70744536375904
H           -7.91163409475371       -5.92380179221696       -2.89299276021682
H           -8.44175911442941       -7.93502012194017       -2.80306007993230
H          -10.06695178352803       -9.74020073907057       -3.07812090400472
H          -13.45222712891964      -11.93060411347292       -3.12121509932677
H          -12.73581262354251      -14.11734178904531       -3.99162873200341
H          -10.54284688387318      -15.03147121745502       -3.35800013779421
H           -9.07179355343941      -13.76145367234957       -1.85143500755194
H           -9.80187329369002      -11.58263762640171       -0.97304046006379
H          -13.77734755327019      -12.10785162797141       -0.39207736565805
H          -16.14183008421911      -11.74602495348787        0.18242036566812
H          -17.17709434953570       -9.54996224634288       -0.20701447629036
H          -15.84934897424453       -7.72106046202262       -1.17592577785995
H          -13.49069411231556       -8.09553770156965       -1.76361655440532
H          -11.98432234049664       -8.59114070010227        0.53685043339034
H          -10.35486221850006       -6.78495320486086        0.82570396397013
H           -5.08801465831474       -3.00534619661563        1.50684632969009
H           -3.49137294351899       -1.15024878179028        1.61881466241259
H           -1.33413119288616       -1.61402714244408       -0.14806986326308
H            0.75572070463096       -1.84729110611778        1.12880176664065
