77
 energy: -16.619675479860 gnorm: 0.000262961868 xtb: 6.5.0 (97a52f5)
C            0.62218028564508        0.26572496085773        2.02778350232216
C           -0.06711078741378        1.46064802786599        1.95813425442180
C           -1.21196621321492        1.55402161275316        1.19941074427693
C           -1.68931456387636        0.45164914313897        0.49525870050056
N           -2.87465301700975        0.54866471857212       -0.30799909117070
C           -3.15868877122995        1.76270756346513       -1.01994612664772
C           -4.46503478092810        2.23427455030044       -1.12232197713080
C           -4.73921974761528        3.40318078821307       -1.79542749732294
C           -3.71468008929102        4.12190329059289       -2.37971736729235
C           -2.41381956648245        3.66649496188007       -2.28816973988574
C           -2.13687916637001        2.49822096660769       -1.61466679432599
C           -3.77917947872929       -0.55609860054382       -0.39269632790317
C           -4.43878603461079       -0.84918602352721       -1.58623867265618
C           -5.30861424328032       -1.90644539061515       -1.67125049845293
C           -5.57297032352804       -2.71742551588106       -0.56001763537122
C           -6.49185810733206       -3.85348849818666       -0.63806531150633
C           -6.81620302419134       -4.44770580207914       -1.84275782523895
C           -7.70090050605527       -5.52739296301986       -1.95221862430765
C           -8.34008991693598       -6.09547830844396       -0.86678206987874
C           -9.27938272958915       -7.20709819253898       -1.01907378650123
C           -9.26936989897829       -8.03252028613397       -2.15102448538122
C          -10.17742432276618       -9.05095558381621       -2.29360461425321
C          -11.14926817096446       -9.28709512686497       -1.32121193744440
N          -12.10969161849317      -10.33573441648710       -1.48133722484745
C          -11.71379925186482      -11.59067509206643       -2.05427430982278
C          -12.57727887452138      -12.30410233632079       -2.88146937756467
C          -12.19612405468759      -13.51326453755351       -3.41799757763838
C          -10.94666371706339      -14.03198145708742       -3.13924785320989
C          -10.07802461457420      -13.33524438619793       -2.32217878043743
C          -10.45667782146533      -12.12583136002714       -1.78496528119331
C          -13.46874621264820      -10.13004494735366       -1.06806653910042
C          -14.21128074070793      -11.16586028931230       -0.50725188945427
C          -15.51744421361506      -10.96431764944425       -0.12178680986141
C          -16.10598619643818       -9.72587491981299       -0.28858938568346
C          -15.38199794189640       -8.68786707379546       -0.84167470262607
C          -14.07574276463796       -8.88681471720626       -1.22731906387405
C          -11.15999695942426       -8.47638748028729       -0.18683218293390
C          -10.23864624652188       -7.47318895595590       -0.03661179966585
C           -8.05632829782447       -5.52761808766497        0.43272285158713
N           -8.54469051391938       -5.89704666280529        1.58595239922572
S           -7.88820849576902       -4.94445158768751        2.76987557706717
N           -6.94171184757531       -4.00961533600199        1.78487180391046
C           -7.10564772144387       -4.40299152149118        0.55065268559690
C           -4.92342120521447       -2.40031646337867        0.63736813842678
C           -4.03867622739588       -1.35672302645972        0.71906454560670
C           -0.98403919916941       -0.74630405649125        0.57715922093181
C            0.16091212697197       -0.83707822231195        1.33589616448264
H            1.51935666053604        0.19406750463083        2.62060660475444
H            0.29189131267517        2.32126588060226        2.49848749327017
H           -1.75742930323441        2.47993317012447        1.14688722259870
H           -5.25677964372978        1.67481684352365       -0.65550292601475
H           -5.75422847421449        3.75894008911755       -1.86441169151955
H           -3.93016787017528        5.03731871798632       -2.90609586939375
H           -1.61438209166854        4.22640217417080       -2.74523382220087
H           -1.12691594297424        2.13363111095960       -1.54621296193530
H           -4.24503167455898       -0.23382659484945       -2.44735651717851
H           -5.81702501718897       -2.09740287097163       -2.59942384487386
H           -6.35191121052947       -4.07937084004608       -2.74007328644483
H           -7.91426893774555       -5.91089010350777       -2.93395729058380
H           -8.52302884490660       -7.88128637326623       -2.91038441996643
H          -10.16209596935550       -9.67523440445074       -3.16984058096323
H          -13.54594252088030      -11.89073762954879       -3.10152436446284
H          -12.87360786437243      -14.05601024998719       -4.05670714001010
H          -10.64995706258959      -14.97954020914460       -3.55828316278583
H           -9.10366272986369      -13.74010249427207       -2.10249056479182
H           -9.78944960598055      -11.58339753362368       -1.13820903679358
H          -13.74445383278650      -12.12571668694792       -0.37183983468277
H          -16.08165257692545      -11.77401837786868        0.31129367474126
H          -17.12904586358179       -9.56959702747180        0.01211869889286
H          -15.84081638544760       -7.72163864142212       -0.97382865550270
H          -13.50942746497158       -8.08544577544926       -1.66870522236988
H          -11.89253052181406       -8.66480709692673        0.57837536934739
H          -10.24111970011274       -6.87441452449167        0.85479157212007
H           -5.13836098576772       -2.98836843512816        1.50984184226080
H           -3.55105942325329       -1.12572347293538        1.64989229076022
H           -1.34211088738888       -1.59839338570133        0.02633403415550
H            0.69948021747351       -1.76917847244108        1.38772496174958
