117
 energy: -25.487274522657 gnorm: 0.000334198004 xtb: 6.5.0 (97a52f5)
C            1.78085443707668        0.56310587444383       -0.42050553529510
C            1.08470707390318        1.64325865993950        0.08621708316275
C           -0.29176403446792        1.62706757041217        0.11079827282293
C           -0.99852769029031        0.52829093779124       -0.37093004922744
N           -2.43261754548209        0.51469251811278       -0.35171051393600
C           -3.16521734630188        1.73735253050354       -0.53651395371550
C           -4.28420913103177        2.01737643041249        0.24445833659339
C           -4.99082670727141        3.18533147924651        0.06547140805598
C           -4.59626653007657        4.09140564554067       -0.89961921747336
C           -3.48849489826110        3.82755345885597       -1.68192889557620
C           -2.77708742728416        2.66261742070475       -1.50166215484024
C           -3.14978698820005       -0.70313939548782       -0.12513333127842
C           -4.36875917776028       -0.92786075419119       -0.76107259166848
C           -5.09726954750219       -2.06030352273058       -0.50112538882678
C           -4.64518725278094       -3.01420003593301        0.41501668675595
C           -5.49760659231838       -4.16368851050794        0.77044053044504
C           -4.97101318010749       -5.41186541112722        1.13764652904065
C           -5.78859920221477       -6.46612322599043        1.49160907067807
C           -7.16866147610628       -6.28490276923959        1.49044196165636
C           -7.69555434957958       -5.04506570226005        1.12991984870313
C           -6.88257323691019       -4.00276657238150        0.77113386298399
C           -9.21883388336667       -5.06502674034709        1.21430038370427
C           -9.49411449655877       -6.50813426914218        1.65203074695775
C          -10.68948646255340       -7.14011582835949        1.89883208946399
C          -10.69623253706740       -8.47360832933708        2.32070643446267
C          -11.97289661213700       -9.16252251779340        2.59445355747868
C          -13.10176162726677       -8.91910845226642        1.80807905716382
C          -14.29240508605533       -9.55179114734231        2.06688807889089
C          -14.40866088151221      -10.44989227751325        3.12663273192431
N          -15.65403395714210      -11.09982042230993        3.40379605747783
C          -16.51674437277298      -11.49095373850051        2.32497942652588
C          -17.90040972071009      -11.39270613522731        2.44677669905932
C          -18.72525111389672      -11.77457913016430        1.41259160994126
C          -18.18430339787505      -12.26137946874723        0.23840520084736
C          -16.81357443842158      -12.36431532586458        0.10200245807544
C          -15.98690895490215      -11.98281850945396        1.13472175435088
C          -16.04401531114953      -11.35682692934912        4.76131227373493
C          -16.72741095937605      -12.52224265646344        5.09861166549110
C          -17.10168313197969      -12.76494401449427        6.40121445438286
C          -16.80102023153508      -11.84900346629384        7.39064317797317
C          -16.12420380335682      -10.68780537945382        7.07191245368494
C          -15.74926221983808      -10.44301085078214        5.77004697212257
C          -13.28431536832270      -10.69537765385348        3.91329875305427
C          -12.09141774355393      -10.06794222095758        3.65175072466163
C           -9.47136835740366       -9.13800698139349        2.48155115434395
C           -8.27135117847171       -8.51115187269539        2.23166903522886
C           -8.27818750012582       -7.18606935878889        1.81369649444714
C           -9.66697277222437       -4.03269653801947        2.24598355153097
C           -9.81009032047494       -4.35253690282344        3.58393246914578
C          -10.10603965617633       -3.37868075078774        4.51654230748872
C          -10.24887525000536       -2.06467671918264        4.11855240936156
C          -10.10180291388879       -1.72854244866396        2.79246010097352
C           -9.81493729307969       -2.70109717522446        1.83944825810044
N           -9.69895883971693       -2.36053901595103        0.45682785425722
C           -9.47907427786564       -0.98407088066822        0.07246249840920
C          -10.51820870658329       -0.20924370619016       -0.43783373273950
C          -10.29989664146398        1.09844893103362       -0.80974678730867
C           -9.04357199551272        1.65762647017541       -0.67517263776801
C           -8.00731673412007        0.90679587201930       -0.15630027614087
C           -8.22338931217772       -0.39818495006203        0.22251274296949
C           -9.92031156661407       -3.38033086779503       -0.52186476976234
C          -10.27289345122488       -3.06474507100592       -1.83090274490556
C          -10.52074415187731       -4.05456608653049       -2.75395483989748
C          -10.41001557887488       -5.38105666057672       -2.38981337260661
C          -10.03597120091816       -5.71152751161153       -1.10306248215387
C           -9.78897062086186       -4.72866376909689       -0.16168004081124
C           -3.41003003081108       -2.79874568804646        1.03143256503925
C           -2.67692481276561       -1.66790964561892        0.76391233178766
C           -0.28232069144646       -0.55233433047322       -0.87908994835423
C            1.09419636351935       -0.53410510567895       -0.90303034894564
H            2.85840711225525        0.57673274320008       -0.44002166129724
H            1.61954257486042        2.49950790079688        0.46373348763162
H           -0.83956149361611        2.46207448497684        0.51135955777898
H           -4.57836389598350        1.31001946057972        1.00033953675173
H           -5.84756471900786        3.39814291866438        0.68409201938725
H           -5.15099159263353        5.00467889025801       -1.04068783873965
H           -3.18035417693317        4.53481093357782       -2.43461227401962
H           -1.91710561740242        2.44674706701420       -2.11136218687897
H           -4.73212224259920       -0.19464562244033       -1.45984854405353
H           -6.03165033182791       -2.22174306890337       -1.01026774224644
H           -3.90362764936923       -5.54716422152606        1.12764237930654
H           -5.37654052834518       -7.42066502710258        1.76774739877917
H           -7.33244428807284       -3.06469072679893        0.51308576228039
H          -11.61075254533259       -6.59844626525812        1.78747592373871
H          -13.02566875480832       -8.23520229075071        0.98048542495082
H          -15.15821217775307       -9.35138263394934        1.46031674944835
H          -18.31508670308031      -11.00466243332222        3.36071087432847
H          -19.79468024481576      -11.69288268553128        1.51911919135983
H          -18.83073939562142      -12.56103040257299       -0.57030071836111
H          -16.39051185900881      -12.74511167557901       -0.81327711653241
H          -14.91868002199426      -12.06970644454756        1.03869680443999
H          -16.95092477924437      -13.23568111685361        4.32475906196734
H          -17.62920519287004      -13.67146552560524        6.64948036955005
H          -17.09434487954929      -12.03979431965264        8.41007535513997
H          -15.89049867075737       -9.97175261321318        7.84288105916066
H          -15.23115191563841       -9.53548632382163        5.51342266488482
H          -13.36451144003328      -11.39408942801560        4.72762198661684
H          -11.23685838364228      -10.25690779190132        4.27807498613097
H           -9.47795041120617      -10.16853633845700        2.79156070807241
H           -7.33603731110376       -9.02844248406864        2.35397570039549
H           -9.67131029072726       -5.37292150971056        3.89612915672237
H          -10.21646498231268       -3.64316326830764        5.55548855489118
H          -10.47516778045606       -1.30236170049938        4.84611819829971
H          -10.21706746897153       -0.70742235521394        2.47456892757852
H          -11.49677722670889       -0.64810289699151       -0.52737079391024
H          -11.11087679118396        1.68714890045533       -1.20652093708437
H           -8.87289188982946        2.68001654781067       -0.97060512648573
H           -7.02719435101112        1.34135954561195       -0.05092031078205
H           -7.42161527197378       -0.97557041208684        0.64521872737517
H          -10.35024562738078       -2.03185311113947       -2.11764500282456
H          -10.79985233585524       -3.79400947042867       -3.76191712046413
H          -10.59997833357849       -6.15750398561094       -3.11273356035436
H           -9.91066995096405       -6.74405124712824       -0.82699490939009
H           -3.05185166142553       -3.51308726582342        1.75211429869922
H           -1.74070020772044       -1.49545093775937        1.26525985937296
H           -0.82284643995175       -1.39908204949092       -1.26465953648779
H            1.63657675064033       -1.37624014134756       -1.30096985732693
