106
 energy: -23.184079339530 gnorm: 0.000598786070 xtb: 6.5.0 (97a52f5)
C            0.85007785730869        1.92881400690302       -1.01145097198308
C            0.18844666943231        2.66830496693797       -0.05040025018712
C           -1.12000949687081        2.37785746580730        0.26421635838451
C           -1.79164253768106        1.34044733778325       -0.37753981765526
N           -3.15553285897409        1.03496086985021       -0.04903467306294
C           -4.07683059616312        2.09992842038524        0.22859219348671
C           -5.05914566389729        1.95688752574907        1.20528843263444
C           -5.93885626349989        2.98177620241520        1.47215497683216
C           -5.85318846604998        4.16858729807903        0.77075880152181
C           -4.88338353720754        4.32666167377497       -0.20002929313038
C           -4.00341428943027        3.30266795609035       -0.46937907716890
C           -3.58826849712168       -0.32921989289255        0.01036502769838
C           -4.87955116993993       -0.68745649963952       -0.37124051658813
C           -5.29531171574619       -1.99456584492936       -0.30716447885324
C           -4.43649566564028       -3.00161473989022        0.14043161148405
C           -4.89038388539378       -4.40255647863266        0.22272593890197
C           -4.01350406524430       -5.46686225293529        0.00022779237664
C           -4.46095882151594       -6.76494830468958        0.08517302397587
C           -5.78237288405994       -7.02056943002864        0.39469466753251
C           -6.69034418897736       -5.99614117530473        0.62100099169478
C           -6.22102688978773       -4.69871032787407        0.52756036787219
C           -8.17732280682089       -6.21962737077293        0.91668587018236
C           -8.62156191515506       -7.65970424740896        1.19411943390142
C           -9.91880970170632       -7.88334917253173        1.61792961911153
C          -10.41455657410080       -9.16568094634134        1.86371609197172
C          -11.80783133365118       -9.35563772681858        2.31078464446118
C          -12.83574202180275       -8.55292033096484        1.81040669074488
C          -14.13309744996204       -8.72840503111090        2.22437184044630
C          -14.45676449229273       -9.70696461156782        3.16212030839346
N          -15.80942887988680       -9.88450242043492        3.60096331887410
C          -16.89157696953925       -9.73535262739172        2.67005165112481
C          -18.09632211282017       -9.15850252720390        3.06330293091782
C          -19.13304225349618       -9.01818777178162        2.16823415315749
C          -18.98637398233198       -9.45116097911119        0.86467380823944
C          -17.79727338255346      -10.02529303732261        0.45919471594710
C          -16.75913853133833      -10.16621444320869        1.35243768777904
C          -16.08150697343660      -10.19737713576094        4.97511748272852
C          -17.11425911393398      -11.06630004195075        5.31771478516624
C          -17.37531402431053      -11.36051887734863        6.63717911175090
C          -16.61082901549583      -10.79279952778584        7.63797632174333
C          -15.58237041776365       -9.92943612372200        7.31396824527035
C          -15.31901578159541       -9.63430189448949        5.99532099277447
C          -13.43337793530315      -10.50695363007717        3.66672455070388
C          -12.13671166109410      -10.33774420545574        3.24767684169466
C           -9.56110981611463      -10.25341460944039        1.66636930814523
C           -8.27033934844444      -10.05270366107144        1.23525826367506
C           -7.81181486071349       -8.77050586732179        1.00427016595171
S           -6.23522298917796       -8.62100782065117        0.48726663772467
C           -8.60294680219106       -5.32172431719847        2.08679225468887
C           -8.19976765794067       -5.34273990388650        3.40524909741551
C           -8.73673835931309       -4.41856007159424        4.28223327896784
C           -9.66528835927416       -3.48641230422669        3.84627940273273
C          -10.07377509021676       -3.46062072063105        2.52775362132994
C           -9.53785168970252       -4.38508113362962        1.64316271219988
C           -9.78567673221005       -4.59070313597072        0.20913769798245
C          -10.62403331727317       -3.91785477927039       -0.66773369747721
C          -10.66799373973898       -4.32040812712349       -1.98770548803367
C           -9.89051644626803       -5.37835323827664       -2.43242853644305
C           -9.05441677125168       -6.05372100919382       -1.56271302625921
C           -9.00626784824151       -5.65644199678418       -0.24327562193934
C           -3.14169813151563       -2.63888609720687        0.51828936163083
C           -2.72757584300485       -1.33117671269683        0.45418241164956
C           -1.11113567333174        0.60478839051674       -1.34450950174778
C            0.19731807504163        0.89688765308300       -1.65730213375606
H            1.87428950307041        2.15693448820690       -1.25739652943172
H            0.69747228885297        3.47271095427379        0.45499594005039
H           -1.63841903704247        2.94363854553308        1.01851122277192
H           -5.11329011170108        1.03467570852832        1.75695419036534
H           -6.69436744231110        2.85857555504308        2.23085737036141
H           -6.54116010409430        4.97092469467533        0.98173201375860
H           -4.81539855970024        5.25248518645730       -0.74751110533994
H           -3.25089320363630        3.41625301265062       -1.22999787673468
H           -5.54508473400755        0.07788777314411       -0.73044726227751
H           -6.29032957302931       -2.25514516947262       -0.62368865314722
H           -2.98808395506965       -5.26577707625685       -0.25588531008798
H           -3.80256656435687       -7.60213535606596       -0.08317438488846
H           -6.90639928876447       -3.89136593953272        0.70976902573363
H          -10.56392453313555       -7.03770114884830        1.77238749340676
H          -12.60261169318835       -7.79974779243996        1.07773125200932
H          -14.91796047777170       -8.10272306301195        1.83675810215564
H          -18.20113231028809       -8.81504692140799        4.07761656894880
H          -20.06002294460919       -8.56883832380046        2.48507265876062
H          -19.79859802849622       -9.34117648158064        0.16482211269137
H          -17.68232883501196      -10.36495952107719       -0.55721780509751
H          -15.83351271467335      -10.62117411391240        1.04572737563243
H          -17.70002868137922      -11.51196207609794        4.53281167256815
H          -18.17652595206945      -12.03586496188202        6.88938910242119
H          -16.81657587584414      -11.02313054455746        8.67055736192351
H          -14.98652230173916       -9.48470196000265        8.09426655983766
H          -14.52566583542382       -8.95511418389688        5.73615092282038
H          -13.67845059038584      -11.26859725555595        4.38615760348548
H          -11.35505373055926      -10.95528686232532        3.65500845370127
H           -9.92723483137386      -11.25120014502840        1.83415180062386
H           -7.59521850029622      -10.87698901768672        1.06965139410866
H           -7.47850734544045       -6.07233725436830        3.73006204089323
H           -8.42963020794583       -4.42438223231411        5.31523426646927
H          -10.07363800122686       -2.77404377836287        4.54433158552045
H          -10.79475991781275       -2.74138987734083        2.18098258944991
H          -11.22387962458672       -3.09778234313085       -0.31410850745140
H          -11.31252068831520       -3.80437857752210       -2.68041386908177
H           -9.93664967097930       -5.67800264958339       -3.46659456089062
H           -8.44456834699338       -6.87688510482735       -1.89243130259887
H           -2.47086186436707       -3.39574023815362        0.88585443169144
H           -1.73305839199888       -1.06040990001139        0.76291950575885
H           -1.62863397219376       -0.19140108980325       -1.85064867054270
H            0.71239234765616        0.32038040726088       -2.40828719151743
