106
 energy: -17.163651148287 gnorm: 0.004460144407 xtb: 6.5.0 (97a52f5)
C           -0.07761813928181       -1.22120703081436        0.78281265654318
C           -0.53850124809820       -0.04484524457994        1.34113585117611
C           -1.84781169496346        0.33953974503994        1.15875428246400
C           -2.72263669645458       -0.44881368134243        0.41571209985739
N           -4.09276869886549       -0.05900342776035        0.23874096072730
C           -4.43017712955775        1.32778669981757        0.08848429781211
C           -5.57936626016582        1.84928080211778        0.67640501512265
C           -5.89839215470990        3.18072456682826        0.53594281606958
C           -5.07576015440148        4.01638874997820       -0.19390359152689
C           -3.93143655547655        3.51445157900871       -0.78273528366418
C           -3.61047295397524        2.18292097961827       -0.64318409943761
C           -5.12321299790842       -1.05144063494072        0.25260113210380
C           -6.27526203535909       -0.90763284680065       -0.51757730218880
C           -7.26338831464913       -1.86069851095978       -0.48495305016085
C           -7.13846676991770       -2.99757081342383        0.31673912296571
C           -8.20386964204487       -4.02034590768997        0.33831463826969
C           -9.53640430704458       -3.66645696308872        0.56318431399253
C          -10.51486230605379       -4.62763844604041        0.55825136279750
C          -10.18642236869728       -5.92049373420670        0.32683987298479
C           -8.90327985723620       -6.32390984430612        0.09503274539580
C           -7.90868525653812       -5.36626965449604        0.10887806958387
C           -8.61592718578233       -7.70562212922822       -0.18585518589879
C           -7.42819684713589       -8.21688058449211        0.32302371296221
C           -7.30010121395345       -9.10761977460634        1.31480976046189
C           -6.10522165607101       -9.56342539343014        1.76556898597553
C           -4.84022753109421       -9.17617920017766        1.36864872323083
C           -4.25032107803366       -8.00340762441373        1.56314646813123
C           -4.75835074166960       -6.95081292162861        2.18772161400392
O           -4.23823457319121       -5.78922973069632        2.52556691636591
C           -4.81610509047779       -4.82534274070434        3.12581179729415
C           -4.28442338320483       -3.76672924853890        3.75721463967189
C           -4.91799057148376       -2.77182545854370        4.35268392943199
C           -6.19752467674240       -2.50735520148685        4.55296905111208
C           -7.34656789535903       -3.12017134812584        4.29628349789581
C           -7.62671922587931       -4.28802126224462        3.74602200829211
C           -8.82701754066033       -4.78859806822583        3.57171860018562
C          -12.38669803932862       -4.03274445230589        3.44738840515555
C          -12.07238173105365       -2.79079090768609        3.30894128989100
C          -11.34847819477057       -2.04483901355367        4.12369692050780
C          -10.78792481469974       -2.40713788854156        5.26638148620287
C          -10.05742925456262       -1.66627768585700        6.08702769142398
C           -9.73167693798246       -0.43368062316004        5.95697168619605
N          -10.59115455673429       -6.44438162511089        5.88009721482512
C          -11.45540407870750       -7.29199926691309        5.82466477074202
C          -13.19139267541460       -7.33811189877990       10.56090234448534
C          -12.44683849823030       -8.37314390125999       10.59655538230050
C          -11.13174684166454       -8.37777634976079       10.48400718756742
C          -10.38895697755419       -7.32884162065266       10.32364737342180
C           -7.02795809662106       -6.73771432874661        6.41669934029002
C           -9.70126839515028       -4.56672165377300        8.49050032240609
C           -9.32636359655846       -3.41537820531727        8.90471660815366
C           -9.87753438544703       -2.63250442088386        9.81739276280133
C          -11.00873165474239       -2.71264869509645       10.49926268587369
C          -12.11865726638301       -3.42183112830323       10.34308236020314
C          -12.62603661479782       -4.09699882576695        9.25089460678873
C          -12.58102467679058       -3.72323617473904        7.95505965621866
C          -13.14404712918605       -4.43523952214906        6.97398951360628
C           -7.55460133613714        0.49606251513201        3.46412454590254
C           -8.03321874122103       -0.27602487632178        2.47887825024651
C           -9.15591809127027       -0.03212825542402        1.85804367405004
C           -5.98517379504908       -3.13744436863097        1.08738061380595
C           -5.00056491834066       -2.18323044339201        1.05294284928505
C           -2.24187039151262       -1.63028281921211       -0.14317792793305
C           -0.93182737255676       -2.01194730315589        0.03928425565525
H            0.94746340540047       -1.52134535879629        0.92656279235364
H            0.12756274326795        0.57259461486258        1.92136316727653
H           -2.21403542783768        1.25145272096716        1.59690192370563
H           -6.21089736281338        1.19729314671458        1.25314845478327
H           -6.79070513411422        3.57118135487601        0.99737370283887
H           -5.32611285007746        5.05892062419053       -0.30348352851848
H           -3.28939734980983        4.16569914108263       -1.35303992847128
H           -2.72506398434574        1.78331219113784       -1.10600122099603
H           -6.37594271040662       -0.03990461688359       -1.14554792385090
H           -8.14818894395673       -1.74375230252753       -1.08664210150996
H           -9.77912123348163       -2.63725801048024        0.76458341121020
H          -11.54353437419111       -4.36891418992989        0.74131437019412
H           -6.88944683543524       -5.65665870950814       -0.07291358471953
H           -8.19466987395845       -9.49818580436375        1.76971863193516
H          -11.10052305554026       -6.56301354670246        2.83814966468907
H          -10.65920621418572       -9.70660038639384        4.12110860501598
H           -8.79003603843267       -7.75884296761845        3.90127121830072
H           -5.62200613101209       -8.48756848580542        4.46312920491835
H           -1.74148849820181       -3.08743538306248        2.58793819929198
H           -4.15206085514465        0.05087418156339        2.98500901260029
H           -9.69918330292614       -4.25854938769644        3.81527214558331
H           -7.21421480563409       -6.51137999080550        2.41263263064267
H           -5.65452918693897       -5.49419528409253        4.55820075197740
H           -8.73073493303520       -7.28574898935074        9.50128398327950
H          -11.08230174821316       -7.01495172824323        8.48999728941151
H          -11.37192890022458       -7.19186471730549       12.99134330532208
H           -9.15218418957858       -7.47330425214020       11.79760239620482
H          -10.93089564111049       -5.70329347150423       10.43021891490398
H           -8.14392959591306       -3.94974514293139        6.51607435914277
H           -8.21231212430644       -4.85449796546693       11.10100665049705
H          -12.84443447570592       -5.06776973642877       12.49441716084040
H          -15.26455555798536       -5.21081223819287       10.03830781841857
H          -13.68540639824213       -7.26535254706457        7.72544853918155
H          -13.70121544145384       -6.47928359841227        4.20631139342832
H          -12.04440182829312       -2.81877540645066        7.70821636086638
H          -13.10234372783704       -4.17025119667875        5.95840583641550
H           -6.65768008476351        0.30706555884984        3.97990086728653
H           -7.46673444359636       -1.14197239106179        2.17479813134251
H           -5.87835723980469       -3.97680744245542        1.75515696877751
H           -4.12659948113207       -2.28852948850142        1.67030210775335
H           -2.91025452929314       -2.23795347920379       -0.72785760252658
H           -0.57252753985999       -2.92890713418102       -0.39854061631365
