106
 energy: -17.118973544302 gnorm: 0.004753265638 xtb: 6.5.0 (97a52f5)
C           -0.09982332879159       -1.05822886672218        1.45227775540226
C           -0.61360086924359        0.21698592674742        1.58593466622549
C           -1.84009465374849        0.52730050927985        1.04295141306514
C           -2.57710010427341       -0.43356448222295        0.35553719464328
N           -3.86530360519813       -0.11223174951586       -0.19125824544272
C           -4.08986407101462        1.18794804232779       -0.75848901716915
C           -5.27760350685850        1.87555913604792       -0.52102733125260
C           -5.48609961598803        3.12333505147519       -1.06314669930468
C           -4.51315162864247        3.70795217484540       -1.85069537882061
C           -3.32872912330453        3.03940250832481       -2.09307377459739
C           -3.11726148756846        1.79150933255596       -1.55157767391477
C           -4.92563316130614       -1.06966610573479       -0.14360251011487
C           -5.95254732563331       -1.06929974301647       -1.08610757976575
C           -6.97769522825676       -1.98199166515569       -1.01392443040033
C           -7.01635902705058       -2.94005590191924        0.00208190386157
C           -8.11318380881964       -3.91901526787253        0.09806813313169
C           -9.41659492385214       -3.59471119511864       -0.28841683457948
C          -10.42182233939307       -4.52240351682815       -0.18157029620566
C          -10.14870990408927       -5.76135923024700        0.28998534523062
C           -8.89752199890667       -6.13553052562495        0.68473452043766
C           -7.88269539771438       -5.20400163494283        0.59634904344397
C           -8.65166802639948       -7.46960592794414        1.16654106772654
C           -7.38867586401525       -7.98830108584674        0.90355885088695
C           -6.96780441897530       -9.25277399378624        1.03418006817549
C           -5.68765482122647       -9.64846122963578        0.82410698182509
C           -4.56926182517450       -8.90154302445951        0.51659622336249
C           -4.19570771072210       -7.69813334557933        0.95290064774335
C           -4.82660082020622       -6.90603905864142        1.77567714755281
S           -4.19406881263148       -5.48731375646358        2.23174878863752
C           -5.08634315873905       -4.40548761851471        3.09809958641444
C           -4.36251920584821       -3.51578268731490        3.75482222273012
C           -4.81072973198967       -2.53065534666678        4.52437541613132
C           -6.02541917766482       -2.10969700776277        4.83415380286030
C           -7.26368343572314       -2.42804181644972        4.47645640920160
C           -7.73059450584202       -3.31697244509196        3.62075146319864
C           -8.99301759402634       -3.52142386851306        3.32400886745010
C          -11.97320564280089       -5.08777457170678        3.73685725700414
C          -12.77240674174772       -4.12697239710125        4.05043013005373
C          -12.54617423034987       -3.12905387269706        4.88565842895304
C          -11.45113363401653       -2.88768889586702        5.58855712017001
C          -11.22431525781603       -1.88792482116642        6.42871626251763
C          -12.02294786182373       -0.94041347024685        6.75779839202238
N          -11.16644597411037       -7.10397406602459        6.44578653972970
C          -12.12308048323559       -7.81136028060374        6.68612919138073
C          -13.48157804040136       -7.43213348025106       11.61047371179026
C          -12.75541731614199       -8.47823355723403       11.65637610320068
C          -11.45671364703560       -8.51899219647718       11.41862534233563
C          -10.71392993231221       -7.50555011608015       11.10437538049728
C           -7.70243735685339       -6.71560205853566        5.63066142819531
C          -10.14791286780654       -4.86890338381731        8.71241536394060
C           -9.75379381623559       -3.67208500194859        8.94788662940698
C          -10.18106533768522       -2.80664208035834        9.85526909879658
C          -11.19432132330831       -2.82519831285934       10.70813570528201
C          -12.29769049918176       -3.55734980839764       10.79674828696507
C          -12.93633964468173       -4.36156730835024        9.87296660012426
C          -13.10242819341767       -4.13116331089154        8.55277744857084
C          -13.76935839480503       -4.96412738769458        7.74638583260361
C           -6.67699954398717        0.61960289365851        2.59582488054135
C           -7.70571985284278        0.02268660393313        1.97205598535807
C           -8.93548127222451        0.45849486694527        2.02940743756894
C           -5.97777255860215       -2.94297441238457        0.93041564971655
C           -4.96101811602097       -2.02686546059388        0.86472644099278
C           -2.04098425210858       -1.71225698203700        0.22176572347944
C           -0.81601292241169       -2.02122528629978        0.76857614065774
H            0.85897946552588       -1.30115574823589        1.88038378859413
H           -0.05496449839256        0.96940197106910        2.11831050874856
H           -2.25019632383455        1.51581766211298        1.15247834203446
H           -6.02267789680235        1.42210375328087        0.10878955484091
H           -6.40848939216115        3.64681586466719       -0.87089476725349
H           -4.67754579231470        4.68503232070592       -2.27475763664087
H           -2.56959216298709        3.49485752495466       -2.70814997305559
H           -2.20022725197877        1.26096674931772       -1.74111667536161
H           -5.92660761119958       -0.34445365242003       -1.88072269634120
H           -7.75583810446196       -1.97441080279985       -1.75715313171736
H           -9.63091957579798       -2.60245057920170       -0.64590001370376
H          -11.43038386013334       -4.27808673678234       -0.46924051757090
H           -6.89452867514365       -5.47836810327645        0.91870691773908
H           -7.68468486718892      -10.00026788065439        1.32907905429894
H          -11.77484664165683       -7.43960658032034        1.93564025016191
H           -9.25263645153876       -6.00469078779748        3.51321908240246
H           -4.47964675108706       -9.99419006602546        3.40293258927574
H           -4.26585446710940       -6.94151033634104        4.71938785001712
H           -4.42305686485165        2.75977955289235        2.06375891131169
H           -8.10129158707023        3.10299186303594        1.13551587364627
H           -9.77680389458151       -2.98700647492476        3.77146250676188
H           -6.71792740489157       -8.27890588476382        3.64850582192562
H           -6.19711617710873       -5.30692402401586        4.02979323282416
H           -8.93031599168237       -7.64832714505058       10.82390406362879
H          -11.08766244197964       -7.56851626853518        9.19960401278588
H          -11.05230702552898       -9.59499244027720       14.06221910380588
H          -10.00927643550096       -7.06640881129385       12.91289335608415
H          -11.30462136035485       -5.93310054445764       10.78026145977655
H           -8.80813918198362       -4.11495544150574        6.26506202560226
H           -8.57701932785613       -4.85052043932524       11.29851832402113
H          -12.05376871603613       -5.47298230181778       13.19776609274528
H          -15.43434846372889       -5.40794173325065       10.98458355188752
H          -13.87442402148808       -7.73291935691218        8.88765569261071
H          -14.18742401165356       -6.85651175417485        4.72580222362085
H          -12.65624851768194       -3.24154021460846        8.13693682023831
H          -13.89151328311383       -4.80949582400954        6.71369728854384
H           -5.68653312957257        0.26969881346577        2.55564273541051
H           -7.51939139029026       -0.87228773470937        1.40003102545775
H           -5.97210607146633       -3.66700893954971        1.72593515006974
H           -4.18779124602548       -2.02885377650797        1.61218108994145
H           -2.59819504347743       -2.45610137760201       -0.32061915870113
H           -0.41598861897131       -3.01663676002378        0.66482619042099
