69
 energy: -15.186766463698 gnorm: 0.000208937198 xtb: 6.5.0 (97a52f5)
C            1.31064086087718        0.20604834234007        0.42343216510645
C            0.68851792758580        1.39910007616231        0.73613752651226
C           -0.64671256435665        1.57687699709037        0.45150393966683
C           -1.38501759328713        0.56291657181702       -0.15330252788567
N           -2.77476388709200        0.74434304626369       -0.45991401468685
C           -3.26439706131258        2.02623855721961       -0.87852743757805
C           -4.53277046877840        2.45730326238392       -0.49797245538383
C           -5.00369945280929        3.68977797429521       -0.89068135579886
C           -4.21769562319795        4.51405461820376       -1.67210171212947
C           -2.95855009684660        4.09963846084915       -2.06070559786477
C           -2.48552716225013        2.86744292819828       -1.66889374380304
C           -3.68227273626970       -0.35902199014304       -0.33706040515514
C           -4.67660505485052       -0.57244023419877       -1.29043868190780
C           -5.54859661066264       -1.62465826612204       -1.17056232977741
C           -5.46961293479132       -2.50097694598097       -0.08760511538055
C           -6.39996169685986       -3.61183165057767        0.08672103908805
N           -6.60093092472816       -4.20022896372499        1.25662541178571
C           -7.51033815367605       -5.17621313285164        1.04336073863497
C           -8.08119821330648       -6.09141131299081        1.99837226750562
C           -7.72897861149896       -6.02545857763857        3.34752656763266
C           -8.28425837839487       -6.88813814813204        4.25488103905270
C           -9.20430007365091       -7.83636720111624        3.83168244008088
C           -9.56236832177558       -7.91820248442920        2.50879679745945
C           -9.01558977404024       -7.05302874230336        1.55072801441629
C           -9.37800783147777       -7.11762808749226        0.13071505764379
C          -10.27796613257061       -8.07116227421949       -0.36514677913442
C          -10.60060126674393       -8.12514467144919       -1.69776819091055
C          -10.03643809738071       -7.22836817813257       -2.59268256324571
C           -9.15463441078284       -6.28260829428607       -2.14495798634283
C           -8.81047824564551       -6.20348053084734       -0.79152280435967
C           -7.87980034881944       -5.22147579324941       -0.30210254330758
N           -7.17337848848953       -4.20774473423217       -0.92630037010297
C           -7.17110069409248       -3.89643268814291       -2.33580144074054
C           -8.18552294373222       -3.12579441793598       -2.88870016382686
C           -8.18388973955972       -2.83687681542518       -4.23527298134822
C           -7.17055509807671       -3.31378799047737       -5.04354587727881
C           -6.15709085470529       -4.08014897054407       -4.50214974764621
C           -6.15633642398262       -4.37020940202843       -3.15582550710126
C           -4.47969653268564       -2.27908104864166        0.86967345153527
C           -3.59742503825479       -1.23526019489050        0.74393092723587
C           -0.74443151536238       -0.63533470296832       -0.45835310505228
C            0.59095864005812       -0.81063727173786       -0.17354575307041
H            2.35632858548668        0.06841344671848        0.64520448489535
H            1.24902106509536        2.19170009266255        1.20430200246080
H           -1.13939338211448        2.50002829109426        0.70214087275381
H           -5.13606349850763        1.81439928164848        0.11892626997423
H           -5.98588701341981        4.01248733583026       -0.58611812757008
H           -4.58655824536459        5.47938383743745       -1.97815916308141
H           -2.34573071602970        4.74170002501506       -2.67206256481220
H           -1.50966057690941        2.53503058247122       -1.97699533056041
H           -4.74272226509176        0.09843422184717       -2.12907327948425
H           -6.31162647753064       -1.77351214583829       -1.91120970374615
H           -7.01662180609313       -5.28142936112951        3.65923105741071
H           -8.00939104056274       -6.82966118361639        5.29535093254951
H           -9.64082700381327       -8.51245365933927        4.54875750816160
H          -10.27921566328495       -8.66086252870965        2.21002521242718
H          -10.72610521493535       -8.78085876053840        0.30581600693966
H          -11.29455259479983       -8.86926265212284       -2.05356639642048
H          -10.29192673747284       -7.27788299139707       -3.63862763923526
H           -8.71388911106205       -5.59033015781923       -2.83733810267035
H           -8.97016532311177       -2.76317054816081       -2.24758434904213
H           -8.97473679921030       -2.23931275451492       -4.65839068892229
H           -7.17051355436753       -3.08769738040455       -6.09735347607899
H           -5.36587975850629       -4.45116376550327       -5.13293047633898
H           -5.37312851568598       -4.96565772699247       -2.71994580138834
H           -4.42134279323280       -2.94527484691861        1.71286107315033
H           -2.83851053752885       -1.06859963442560        1.48815597164065
H           -1.30895774170340       -1.41976864321663       -0.93146453572146
H            1.07573834807242       -1.74149549194752       -0.41863794981878
