76
 energy: -16.684445411406 gnorm: 0.000145592516 xtb: 6.5.0 (97a52f5)
C            0.82530248578888       -0.94026125377603        1.23864413553392
C            0.41871428514947        0.34364906686699        1.54640376279201
C           -0.79292222148703        0.81219373235633        1.09055100384119
C           -1.61961554683125        0.00305063722796        0.31596526437906
N           -2.89248743381127        0.47841317273272       -0.15100477690675
C           -3.02624186298912        1.83876690514947       -0.59249110302570
C           -4.23060663092749        2.51541216133253       -0.41980863802383
C           -4.36876369686335        3.82119058734662       -0.83324169251722
C           -3.30752465395043        4.47402699426469       -1.42952483683595
C           -2.10781952899478        3.81415235544740       -1.61299597927830
C           -1.96752284697357        2.50821993527374       -1.19986476833113
C           -4.00277665212040       -0.41661274579964       -0.28423401980077
C           -4.70770007967653       -0.46361615824757       -1.47543928444801
C           -5.76060855648356       -1.33452398611833       -1.65597056091567
C           -6.18208733356876       -2.19780114746597       -0.64658443176200
C           -7.28246163274750       -3.13147652095358       -0.83915971188726
C           -7.94112175704400       -3.25181589736095       -2.05795921292199
C           -9.00397573645778       -4.12414254025887       -2.22532553833574
C           -9.43112706253698       -4.90022222393759       -1.18401143480163
C           -8.79872501561264       -4.84266439417425        0.06685649186387
C           -9.25971065767687       -5.63586550326383        1.16291649800347
N          -10.33621081524344       -6.56854223462819        1.01797739472708
C          -11.36755643907895       -6.61582472459110        2.01699330815736
C          -11.92962686692732       -7.82511394494880        2.41667749947331
C          -12.91815597078525       -7.85674377877860        3.37456669042554
C          -13.36172527155518       -6.68259846613357        3.95162475014597
C          -12.81061933767050       -5.47535303587850        3.56837992681990
C          -11.82187169807137       -5.44160627056230        2.61111691303958
C          -10.33102194179949       -7.53917763568201       -0.04136819077576
C          -11.51837035460622       -7.94942057785594       -0.64137521932294
C          -11.50479337593976       -8.87025321987998       -1.66471683920432
C          -10.30661691264087       -9.39635024220273       -2.10749260719418
C           -9.12024090193125       -8.99623446705308       -1.52386076309062
C           -9.13122354641732       -8.07534812633125       -0.50075220408039
C           -8.64746346449358       -5.48255631035302        2.39572459706229
C           -7.58380946914218       -4.62389799436610        2.57095209164848
C           -7.08024678557887       -3.85441437869887        1.52419190397571
C           -5.94388461860930       -2.96170750593173        1.70059670894207
C           -5.26122290954818       -2.86851615276716        2.90856910140472
C           -4.19666236031113       -1.99807583093946        3.07528972821261
C           -3.78479811822076       -1.20474194041619        2.04085102625196
C           -4.41722491491188       -1.26296561689569        0.79013605422573
C           -5.51440639230016       -2.14749076598124        0.61089765558356
C           -7.71271602798353       -3.94510687459959        0.25084560560285
C           -1.19845447319805       -1.28991926514491        0.01793732549675
C            0.01366931253731       -1.75599707259408        0.47445027609529
H            1.77447218056301       -1.30565322796376        1.59534253216035
H            1.05044223895041        0.97921725225450        2.14529970506586
H           -1.12111268203478        1.80696506196402        1.33673714458806
H           -5.05031591336225        2.00224105436998        0.05207702272347
H           -5.30533223167213        4.33493997074285       -0.68958477647153
H           -3.41570326432308        5.49689148411310       -1.75158108969847
H           -1.28037517073554        4.32226497280154       -2.08082203050859
H           -1.03897483654576        1.98596646117552       -1.35049418214992
H           -4.39919837456726        0.18472972264930       -2.27705260161358
H           -6.26471875066260       -1.33552582546710       -2.60467383806067
H           -7.62826035927358       -2.65968595356398       -2.89802185823185
H           -9.49874259846896       -4.18873753522917       -3.18083660444356
H          -10.26644551726027       -5.56331584485046       -1.31511060893029
H          -11.57227494386971       -8.73745848149705        1.97218193494354
H          -13.34588115073544       -8.79923925341180        3.67533663596155
H          -14.13643569057536       -6.70837132308094        4.70051330328158
H          -13.15584912005667       -4.55860464723108        4.01795430071017
H          -11.39211453770166       -4.50464071732630        2.30228570807897
H          -12.44702720541114       -7.52717645812020       -0.29900290163310
H          -12.43039250482807       -9.18030390653356       -2.12170610154636
H          -10.29730963066481      -10.11782049885219       -2.90815315276455
H           -8.18490446248160       -9.40516939374759       -1.86968764306109
H           -8.21164445736846       -7.75801660648451       -0.04091622998019
H           -9.00694159807450       -6.07203677827615        3.22117693480660
H           -7.14187651231707       -4.55192630990389        3.54752587660942
H           -5.55574235646008       -3.48153494920727        3.74023517500799
H           -3.69270137298317       -1.94392011107608        4.02662361403683
H           -2.96825167494944       -0.52016199461478        2.17980273784626
H           -1.83703109050529       -1.91900409175323       -0.57725441481945
H            0.32923937867811       -2.75849881532964        0.23551150783189
