70
 energy: -15.294170766270 gnorm: 0.000776160362 xtb: 6.5.0 (97a52f5)
C            0.05213027414363       -3.17231937133848       -2.41317368683184
C            0.49287993954074       -2.06533059065994       -1.71413255568813
C           -0.40915124834047       -1.12429799580608       -1.27133115620251
C           -1.77047017378987       -1.27420204844888       -1.52144178220316
N           -2.71689151347470       -0.30419137108490       -1.04549433446153
C           -2.38818681863116        1.09281454070600       -1.10555553324392
C           -2.87515590497851        1.97138930674106       -0.14151965865345
C           -2.56774357209161        3.31229206150333       -0.19323632891111
C           -1.76961954714468        3.80071287411800       -1.20944336197924
C           -1.28125779261851        2.94211738436086       -2.17516801790854
C           -1.58789205608322        1.60074324769427       -2.12537188447210
C           -4.02869731972585       -0.69870560318861       -0.62577318680297
C           -5.13882937766230       -0.00027415831347       -1.10795926311729
C           -6.41774255161359       -0.34359149128976       -0.75480823234658
C           -6.65847477720241       -1.40855151742435        0.12349614441795
C           -7.97351968904550       -1.79087635935297        0.50493228155483
C           -8.18110909101444       -2.80885623950502        1.37610147064451
C           -7.10040961446033       -3.52787418858788        1.95398506981543
C           -7.30381842453634       -4.58001759490215        2.88396086522508
N           -8.60913467265495       -4.89984046337625        3.37882270281733
C           -8.98730124040697       -6.27371756984385        3.55694536903940
C           -8.57259389986408       -7.24292084312482        2.64763707941844
C           -8.92934146590615       -8.56217580044225        2.81499524380811
C           -9.70511894075829       -8.93817304771236        3.89438045292162
C          -10.12255781505044       -7.98878660571610        4.80649556562869
C           -9.76638620044633       -6.66919759651980        4.64104387601050
C           -9.48274553035902       -3.86121477621218        3.85133846294296
C           -8.96347355579911       -2.73501359095818        4.48433852006864
C           -9.79532268908355       -1.72883673705133        4.92076670211245
C          -11.16019498024830       -1.82936413400558        4.73309456588046
C          -11.68995885387323       -2.94019710142308        4.10552029297341
C          -10.85998517376692       -3.94747683341217        3.66719623019635
C           -6.19614506015794       -5.28936581090717        3.35626564854994
C           -4.91824292091021       -4.96570183344004        2.98010275088351
C           -4.67655423666084       -3.90744518688239        2.09334433102130
C           -3.36156397109885       -3.52473206434226        1.71195841509087
C           -3.15283069628213       -2.49910604026190        0.84985153740009
C           -4.23249169804999       -1.77531328274010        0.27558084334275
C           -5.55467276590469       -2.12402633583179        0.64934219431038
C           -5.77923031002625       -3.19141164097018        1.56701592174472
C           -2.19984039174751       -2.39570441170279       -2.22586642246653
C           -1.29588746922209       -3.33556949906496       -2.66725729542522
H            0.75938723631982       -3.90825408129067       -2.75929756422807
H            1.54424425304450       -1.93878269710164       -1.51324819121595
H           -0.07431403454365       -0.26570553803742       -0.71577966782378
H           -3.49086852565658        1.58239396694082        0.65066779012111
H           -2.94918394036261        3.98121687718782        0.56089723098419
H           -1.52910060116004        4.85055859228721       -1.24956856364090
H           -0.66056501587209        3.32297209743502       -2.96981538801775
H           -1.21934220456134        0.92967696111901       -2.88135804455279
H           -4.96951841526838        0.81546575637293       -1.78892286903306
H           -7.25474931609036        0.20603325420996       -1.14976647425949
H           -8.80879713872317       -1.25444920740018        0.08898681362785
H           -9.18358326921583       -3.08629579595227        1.64565706170945
H           -7.97358613984856       -6.94232950553308        1.80585568097884
H           -8.60420534837105       -9.30264416534854        2.10249987078984
H           -9.98492260684651       -9.97092714950704        4.02406601669275
H          -10.72640728983001       -8.28134249108486        5.64999269080682
H          -10.07927761004788       -5.92741167528859        5.35469932496725
H           -7.89905915042178       -2.66399396167635        4.62485948054392
H           -9.38091688685884       -0.86122149519411        5.40777784452191
H          -11.81107381275832       -1.04116012811555        5.07482022078222
H          -12.75464170385582       -3.01695081846563        3.95644348338407
H          -11.26406961053582       -4.80896966239295        3.16486365595020
H           -6.36451870769155       -6.08877093415491        4.05648475359713
H           -4.08199539754418       -5.51824891055233        3.37259105876947
H           -2.52656692806968       -4.06231770834679        2.12692701313824
H           -2.14980486218656       -2.21723821546696        0.58780629606838
H           -3.25167593502792       -2.51635860717150       -2.41740907993495
H           -1.64048324114331       -4.20007443681922       -3.21091028182100
