67
 energy: -14.599638835710 gnorm: 0.000231699647 xtb: 6.5.0 (97a52f5)
C            0.87846632485325       -0.94875526970805        1.84205395645316
C            0.70133454951615       -0.05888482874793        0.80043549408710
C           -0.56007504144239        0.40102784707808        0.49661825756137
C           -1.66443549322113       -0.01964858508342        1.22699850276419
N           -2.94517196579354        0.49580350359177        0.88627845552229
N           -3.13197095389782        1.32972298012413       -0.13472867083646
C           -4.40811737275141        1.66247592903161       -0.23069637525235
C           -4.96590312198990        2.34081207016713       -1.37810353973423
C           -4.47875215338318        2.03367150850259       -2.69236083653095
C           -3.38995625591589        1.16292917059280       -2.90163545901524
C           -2.96352438849322        0.83491709653926       -4.15418233373352
C           -3.60833601376626        1.36027906550753       -5.27887301916373
C           -4.66828319875557        2.20099184584622       -5.13006852115702
C           -5.13715295141708        2.56032634561292       -3.84076211496095
C           -6.23891901156955        3.40048949511106       -3.68254522827194
C           -6.69819719592567        3.77244171114083       -2.41889036539518
C           -7.78749325093064        4.66868557114653       -2.27480005401078
C           -8.18634131675638        5.08909614251662       -1.04387948123645
C           -7.51158892239821        4.65184976814067        0.10075248123022
C           -6.47026491700814        3.77577728393676       -0.00109244591863
C           -6.05030925938674        3.27260821102670       -1.25092971146905
C           -5.21766858764770        0.99455983958754        0.86016698466724
C           -4.19479884259299        0.12732654065850        1.60118717736524
C           -4.16087133308292        0.38006153106722        3.08767544268079
C           -4.69974593841198       -0.57536368998926        3.93620335030440
C           -4.72008232313214       -0.40335430028607        5.30257990846273
C           -4.20448815436786        0.75358683555802        5.88085047143895
C           -4.21502602072335        0.96621459194805        7.29648110772612
C           -3.71869122939825        2.09913619699614        7.83790843781613
C           -3.16383734967930        3.13079302714273        7.01571195429759
C           -2.64858830821786        4.31171688877301        7.55130303732451
C           -2.12014223521344        5.28701601303486        6.73136454715638
C           -2.08920113393213        5.11585358349247        5.36292545040283
C           -2.59232272830522        3.95337040556826        4.77778302795130
C           -2.57026694995131        3.73711403029625        3.36468180530348
C           -3.05879497963367        2.60126186717461        2.82642451233916
C           -3.63091004982700        1.56416580455600        3.63172114245991
C           -3.65847498324154        1.74988356252186        5.03733688139497
C           -3.13667248627832        2.94757316881006        5.61150398110952
C           -1.47245821674199       -0.91632622459866        2.27341500696282
C           -0.21073875037347       -1.37558748045235        2.57709443803482
H            1.86577998025947       -1.30788837699529        2.08246203082017
H            1.55000560810453        0.27712178317522        0.22734036169330
H           -0.71244386912870        1.09895499892489       -0.30773477838031
H           -2.88650545163949        0.75340672718055       -2.04727165502090
H           -2.12678951611766        0.16765774359846       -4.28184895943871
H           -3.26389890331124        1.09374536678725       -6.26472306695593
H           -5.16910002042062        2.60102866907658       -5.99487405402710
H           -6.73339949725336        3.78690045955558       -4.55528212863432
H           -8.28902289393577        5.02353613177388       -3.15877298687704
H           -9.01083681142857        5.77658978191289       -0.94832877074654
H           -7.81028573295174        5.02235468428407        1.06785277824807
H           -5.91542306489548        3.51449604944988        0.88066685935991
H           -6.03651420722458        0.40669544131552        0.43134683080756
H           -5.65617584032263        1.72048912156789        1.54826222071431
H           -4.37084768828813       -0.93939838884929        1.40703083685405
H           -5.11354007034739       -1.47314055976918        3.50937403595171
H           -5.14090131860201       -1.16365545839813        5.93782273891716
H           -4.63024853125602        0.19977742394239        7.92786364448570
H           -3.73437039817304        2.24354540485442        8.90433835955967
H           -2.66821874929088        4.45377189046316        8.61813274910251
H           -1.72622190572165        6.19185490495432        7.16463490021065
H           -1.67268755994608        5.88116057021915        4.73093224772375
H           -2.14282504929218        4.49718563501903        2.73378937447158
H           -2.99990713917740        2.45340039939535        1.76518089197345
H           -2.31737978101749       -1.23844329244963        2.85430971184198
H           -0.07199907744867       -2.06639616492652        3.39269817127594
