107
 energy: -22.896110966448 gnorm: 0.000315361461 xtb: 6.5.0 (97a52f5)
C            2.69687776427959       -0.31480977178687       -0.31024036931391
C            4.10021348027528       -0.89312063906423       -0.57729940591795
C            5.14626875858418        0.10955512650843       -0.05708408469614
C            4.22883290494741       -2.22314640658874        0.18809033168804
C            4.33914276140770       -1.14187140617885       -2.07439252062767
C            3.38924724847938       -0.83344483422763       -3.04138325510312
C            3.63441252986856       -1.06236497548185       -4.37661386777005
C            4.83968184530957       -1.60855610870185       -4.78741249678728
N            5.08731967325415       -1.84778010611205       -6.18915673302371
C            5.40867497225964       -0.89381112380125       -7.17030548219735
C            5.66350731500567        0.52185647238508       -6.92338853636692
C            5.49651801870825        1.44470314338862       -7.95510092269444
C            5.74936487245991        2.77974432304515       -7.75533914029777
C            6.20175032247453        3.24146096639430       -6.51813610657377
C            6.53753232834525        4.67442205145464       -6.31261135584915
C            5.51493854196841        5.61189041787875       -6.24208974743581
C            5.74896962406113        6.93829815162801       -5.93406360333440
C            4.58494716232030        7.85844283378033       -5.96180699168468
C            3.47653756101236        7.63106068942299       -5.14666855794506
C            2.39981445288941        8.48977005461339       -5.17006833365012
C            2.40481945141767        9.58447236592259       -6.01154294135938
C            3.48906459547638        9.81808064877514       -6.83391930620516
C            4.56862515705864        8.96288809313121       -6.81314146439007
C            7.08644774953391        7.36879863462204       -5.68149127441068
C            7.39364945125431        8.66533552667596       -5.06957005202267
C            6.41826625228524        9.42176644082379       -4.40206680176776
C            6.71311960435108       10.61039660364978       -3.78923486632121
C            8.01160824449490       11.08553658919604       -3.79840366508349
C            8.99858805521330       10.35611386340248       -4.40797917808212
C            8.72385367208964        9.13659706576549       -5.04391678826054
C            9.78354859739008        8.34500674160555       -5.65827937168120
C           11.07299427951818        8.86723517811989       -5.83773250412890
C           12.06124292130250        8.14312020732699       -6.45137934506520
C           11.78798459632314        6.87314432588238       -6.92403273317692
C           10.53653675923235        6.34053205017215       -6.76196634365074
C            9.51015004184183        7.03427761193115       -6.10420236203651
C            8.15589422239680        6.48034294964807       -5.97332368456654
C            7.87313264671465        5.09791826394012       -6.18050424705055
C            8.93343990418449        4.05786097893929       -6.17270983265309
C            9.74017083344384        3.87556716981586       -5.04890409156518
C           10.71222263418222        2.90034321585357       -5.03170217975701
C           10.89579894610009        2.08534829105186       -6.13115719048193
C           10.10410185151177        2.24778605326536       -7.25053212170692
C            9.13257741885479        3.22285976774756       -7.27338667272834
C            6.37080533513947        2.31779517162994       -5.48586488442420
C            6.10297859676820        0.98702259296051       -5.68425059587028
N            5.43367764455105       -1.43331747526367       -8.38134384032062
C            5.14575018771393       -2.74405001117393       -8.22017468724802
C            5.05669173085478       -3.77173419616157       -9.22572852607675
C            5.30083661123711       -3.47801668680091      -10.56865629468170
C            5.21891491391874       -4.45804294179290      -11.52136077291739
C            4.89091641639936       -5.75444863514838      -11.15121320018851
C            4.64675189436060       -6.06298514303550       -9.83601310359939
C            4.72041074480242       -5.08702227776989       -8.83256207653053
C            4.45830560793195       -5.38653942640129       -7.41978785700036
C            4.10614165574086       -6.67131246575168       -6.98364790267386
C            3.85305802143119       -6.93312959617118       -5.66068976902373
C            3.94010595823997       -5.92115191423018       -4.71642073709187
C            4.28372818978762       -4.65504595363081       -5.10496785354413
C            4.55069916646898       -4.36193538985660       -6.44629055955115
C            4.91273230902396       -3.03667453856019       -6.87508578390627
C            5.79526123984954       -1.91869314218002       -3.83212455816276
C            5.54537700582308       -1.68671162908600       -2.49813298058402
H            2.54239943910843       -0.15221785892804        0.75624970752313
H            1.91971020721937       -0.99628187508932       -0.65531664262062
H            2.56521837406617        0.64399545620759       -0.81095811904508
H            4.99144706493040        0.32141352091383        1.00058595064761
H            5.08165879647990        1.05051004883996       -0.60296217099469
H            6.15780337378360       -0.27664599575342       -0.17528668794315
H            4.04003192749523       -2.08055023487081        1.25184009863595
H            5.22605922533255       -2.64783432831878        0.08169903046255
H            3.51217331189590       -2.95343435014272       -0.18684773412103
H            2.44539666092764       -0.40744552378302       -2.75150496691025
H            2.89650344804613       -0.82060048150930       -5.12174162421239
H            5.16603731974418        1.08853180682639       -8.91541845359639
H            5.62149478618538        3.48469627763704       -8.55867057463701
H            4.50401896222199        5.28631587167080       -6.41128830532230
H            3.47896308982480        6.77942002538594       -4.48806352970938
H            1.55210934814136        8.30688560689692       -4.52990767549838
H            1.56152172848306       10.25560351950999       -6.02769593726803
H            3.49163295656679       10.67157594754260       -7.49213422926223
H            5.41818409310934        9.14145352258227       -7.44976245786414
H            5.41407889858183        9.04898227838298       -4.33919467301417
H            5.93789047078043       11.17038439651887       -3.29164399500806
H            8.24750062261667       12.01851694662798       -3.31259208944903
H           10.00744570700224       10.72412817367822       -4.37031369047862
H           11.29482812861035        9.86728693874317       -5.51321511010037
H           13.04388525788544        8.56692117826976       -6.58155084534378
H           12.55605666655719        6.30844252594198       -7.42736333535341
H           10.33498247374451        5.37360328315963       -7.18064096799679
H            9.59129562119735        4.51236369095242       -4.19384570664665
H           11.33041458864825        2.77268670024224       -4.15809200100719
H           11.65585989707419        1.32127512165610       -6.11511431946915
H           10.24385906583094        1.60804618191339       -8.10664540183367
H            8.51214955034608        3.35103451127710       -8.14354441309731
H            6.72595676196644        2.66540218601474       -4.53094699773633
H            6.24846591689773        0.28656160785309       -4.88324764327511
H            5.55503545609750       -2.46748658253473      -10.83795575333554
H            5.40885002446108       -4.22386743887007      -12.55611011124060
H            4.82741687835031       -6.52356970094599      -11.90374755178260
H            4.39470076024677       -7.07533177294843       -9.57832631884049
H            4.02916740644639       -7.47322853290489       -7.69483399828095
H            3.58310632501422       -7.92990842389487       -5.35156115123403
H            3.73701466713267       -6.13247494045720       -3.67910628959322
H            4.34847514513554       -3.86972342950744       -4.37558726257295
H            6.73093322932169       -2.34329869833487       -4.15240107431173
H            6.29914311234339       -1.93083099388350       -1.76992879614366
