23
 energy: -4.719586402268 gnorm: 0.000567546705 xtb: 6.5.0 (97a52f5)
C            1.32508849487738       -0.24692275787001        0.33517153468200
C            0.78896829838861        1.02577322624661        0.35073691541674
C           -0.52205314031349        1.22689425552821       -0.01437395005699
C           -1.32823513447131        0.15615944271907       -0.39775790497983
O           -2.66130115333143        0.39970679969244       -0.77306899367410
C           -3.62321227124804       -0.60558328967680       -0.56124446154607
C           -4.66912391463408       -0.75126358403858       -1.47124428084689
C           -5.62587688194092       -1.72372705553714       -1.29406477563341
C           -5.56410761530215       -2.56588353316707       -0.20123107848214
C           -4.54360608777594       -2.42558319736878        0.71839834001270
C           -3.58531445626639       -1.45395562383150        0.54491761312290
C           -0.76626310670193       -1.12002614554657       -0.42105389833356
C            0.54466402789909       -1.31762930321288       -0.05411666210916
H            2.35177612100129       -0.40370263984876        0.62208756043589
H            1.39903629821575        1.86281274990336        0.64830590426603
H           -0.95088645520351        2.21322310768979       -0.00822124342056
H           -4.70577079238908       -0.08882912538496       -2.31767750401849
H           -6.42513641259260       -1.82854117042375       -2.00913130268771
H           -6.31267052780170       -3.32888292530193       -0.06472673039297
H           -4.49899684447191       -3.07732920637953        1.57551139025620
H           -2.80047460839364       -1.32669677422455        1.26887621363873
H           -1.37043575871404       -1.94769372012902       -0.74658257624114
H            0.96399192117049       -2.31025952983702       -0.07345010940823
