63
 energy: -11.536846725191 gnorm: 0.000636163939 xtb: 6.5.0 (97a52f5)
C            0.45002830594009       -2.88301404201704       -1.24117683913130
C            0.47362147947333       -1.58250202069221       -1.70490081244608
C           -0.39506405171999       -0.64782290607388       -1.17876003500522
C           -1.28280653412547       -1.01359494959309       -0.19478692720821
B           -2.28881075327437        0.08664877563585        0.39899285756075
N           -3.13334485430267        0.63064475946626       -0.72568359037746
C           -4.24776856712488        0.00910246331924       -1.05452380105086
C           -4.92922700152000        0.38984291661950       -2.34235519658591
C           -4.92608532453901       -0.79382031666506       -3.33752918665772
C           -5.64477777876524       -0.43202186986048       -4.64986464381008
C           -7.08286564320311        0.04902709367404       -4.37813642931138
C           -7.09243182050115        1.23663023792114       -3.39698691994559
C           -6.37494752766782        0.87396836224599       -2.08420035582022
N           -4.81459690749296       -0.96404724622983       -0.33206445382527
C           -4.33604971455285       -1.16417171227866        0.92514351146022
C           -5.02755861384031       -2.01249963215438        1.79290405871763
C           -4.59785519775063       -2.18170132637449        3.08869925779615
C           -3.49435440018332       -1.49942787602853        3.54604317104888
C           -2.78731913874252       -0.64818410460601        2.69385346910397
N           -3.21239891578813       -0.55221247734590        1.40048388679323
N           -1.73539925724577        0.05954333835164        3.18476386064743
C           -1.20045560631545        0.99415458582443        2.39081044468773
C           -0.22739295059179        1.95501222568457        3.02230874970892
C           -0.97085642893306        2.98922225903766        3.89847941393766
C            0.00765857999953        3.96245004528365        4.57970430652042
C            1.05610845235353        3.19964733852769        5.41113975693538
C            1.81284519249800        2.17851937845712        4.54127069380691
C            0.83641419030591        1.20468363770543        3.85792653791458
N           -1.48925910283099        1.14610960238655        1.11452606442652
C           -1.30766480510242       -2.30775649362820        0.26832458798576
C           -0.44220990606190       -3.24703987589049       -0.25249305368953
H            1.12794818954230       -3.61386650309843       -1.65109303074755
H            1.16948943174420       -1.29706393335384       -2.47687622573081
H           -0.38837180436045        0.36921703253151       -1.53043801446360
H           -2.74708398387664        1.38090900303219       -1.28474903114145
H           -4.36755079398962        1.21979546879519       -2.79715478284628
H           -5.42485314892569       -1.64578153656610       -2.86213297277472
H           -3.89630877492482       -1.12554728330408       -3.52309215204415
H           -5.64321533255269       -1.28537043738835       -5.34235191183960
H           -5.08695760737500        0.36194822647264       -5.16151490372425
H           -7.66611365615429       -0.77671456996319       -3.95228562883000
H           -7.59000154657673        0.31359239698036       -5.31656115792772
H           -8.12025515515879        1.57117906710067       -3.19892390622678
H           -6.58886436541234        2.09417978012421       -3.85999240471075
H           -6.92026361935051        0.07483511422617       -1.56979007060498
H           -6.36822207098411        1.71958163990654       -1.38436456219153
H           -5.90511259036760       -2.51830874512558        1.43082742183929
H           -5.13801973269900       -2.83635770151279        3.75291485038686
H           -3.16419094147961       -1.60094917462977        4.56478196633956
H            0.29245300016069        2.49547405278315        2.21687605397644
H           -1.54738792725967        2.44824615621509        4.65694365013591
H           -1.71424315788504        3.52637830505265        3.29531384945083
H           -0.53421088208459        4.68652898245202        5.20372525066809
H            0.51673038442032        4.55909175490865        3.81275971001176
H            0.55354150125066        2.67338758700826        6.23189765324568
H            1.75541390958743        3.89647814634727        5.89372984395247
H            2.55429888477152        1.63049734014188        5.13930757083042
H            2.38942460700270        2.71078257632308        3.77496647515389
H            0.31984647520168        0.60402299505271        4.61462916765330
H            1.36812456242869        0.48189605119198        3.22608599895537
H           -1.09649754076507        1.89421006380417        0.55723257854172
H           -2.01022616408328       -2.57247662709879        1.03782213650290
H           -0.46345554822105       -4.26138539912726        0.11112419396179
