85
 energy: -18.457923647546 gnorm: 0.000628861840 xtb: 6.5.0 (97a52f5)
C            1.67892969564180       -0.29568695620630        0.06700309123890
C            1.23110930813475        0.94413187988581        0.47750293178362
C           -0.11510569260455        1.24496742596002        0.41305664155394
C           -1.01176108125726        0.31050423967538       -0.05882118775008
Si          -2.82123300567064        0.71969442657852       -0.16433711232269
C           -3.18831808003411        2.19271106529291        0.90475245893491
C           -3.70926826193279        2.01498829573818        2.16832202262459
C           -3.95891982814425        3.10774967314232        2.97497272773492
C           -3.68469054891230        4.37987256048110        2.51343143007702
C           -3.16222355010757        4.55858771194840        1.24784951789232
C           -2.91434197321596        3.46278640033419        0.44443604034072
C           -3.28139696824230        1.10909515196216       -1.92092685688953
C           -4.44027063517771        1.80990436291460       -2.18317008770730
C           -4.81930127852738        2.05957945108660       -3.48426678937245
C           -4.03733723645440        1.61152133579993       -4.54265365378610
N           -4.43095389460185        1.86882311632113       -5.90114539492845
C           -3.62772330937702        2.45301616368266       -6.90185671217580
C           -2.31961949157064        2.93420549806956       -6.85763127437382
C           -1.77670154464650        3.47609034033952       -7.99669860359514
C           -2.51479368146937        3.55033108775817       -9.18188270973601
C           -3.80693682789388        3.08675470415709       -9.24114567359690
C           -4.37317843138191        2.53457438156242       -8.09058121626151
C           -5.67954431773986        1.98407659143384       -7.81633959347576
C           -6.81225525918400        1.80623010802614       -8.61298571682976
C           -7.92658567248195        1.22872318925449       -8.05368584759548
C           -7.93224517658655        0.82144828514354       -6.71614978646485
C           -6.82601180238857        0.99036193854478       -5.92019574594015
C           -5.68913290690250        1.58239779769804       -6.46952242391044
C           -2.86869596529093        0.91110635190105       -4.26664169170147
C           -2.49668179890236        0.66264653975018       -2.96348858282759
C           -3.82541796419986       -0.72451771742452        0.43131873746699
C           -5.08787506457405       -0.94372736982437       -0.07897027031849
C           -5.86392818370898       -1.97218414539541        0.40900130397634
C           -5.38061780480125       -2.79962498949022        1.41585338266457
N           -6.18833321914551       -3.87407479829204        1.92658574622249
C           -5.81557227343815       -5.23187444933496        1.99547677838235
C           -4.64309816547846       -5.87749841793488        1.60465587356118
C           -4.55105852830820       -7.23727773560307        1.77340690396762
C           -5.60786224891508       -7.96823830524278        2.32472094365241
C           -6.77148263080900       -7.34819163238314        2.71170950112270
C           -6.88061423491105       -5.96637719106130        2.54458782147369
C           -7.94576776488384       -5.03268039825507        2.82551183342489
C           -9.21835536134805       -5.19411085326311        3.37663819380135
C          -10.01349906289015       -4.08448934810449        3.53377298319063
C           -9.56338645903386       -2.81619290808456        3.15433650578982
C           -8.31483718196605       -2.64210447930519        2.60960409676209
C           -7.49718767476555       -3.75849456832471        2.43752805918220
C           -4.10566037988674       -2.57233938910372        1.92116384004507
C           -3.33678376655287       -1.53856301485937        1.43199599807849
C           -0.56388065032288       -0.92720649762211       -0.46855646777468
C            0.78174979124900       -1.23237301398854       -0.40639440563418
H            2.72927456360418       -0.53269304888665        0.11694245059737
H            1.93022238029432        1.67598562089050        0.84793768878165
H           -0.47668804242242        2.20770446216287        0.73158603587141
H           -3.91914895056822        1.01759399459690        2.51567902101173
H           -4.36667273200032        2.96691094021659        3.96261922686137
H           -3.87890548247752        5.23417277527502        3.14142392959460
H           -2.94864691080354        5.55121898058328        0.88643588814275
H           -2.50872401409382        3.58852573592428       -0.54565323747829
H           -5.04046666930209        2.16267447325202       -1.36119970445962
H           -5.71642563059601        2.61396060940410       -3.69739926615958
H           -1.76256159548274        2.88312839041215       -5.93929299427594
H           -0.76691350049407        3.85213073686124       -7.97687083743893
H           -2.06271850197923        3.97993300196306      -10.06076653327128
H           -4.38300586528377        3.14375538735989      -10.14789657054499
H           -6.79811317162701        2.11800903834270       -9.64247249444857
H           -8.80960221699990        1.08466445573686       -8.65439072556978
H           -8.81843236425395        0.36597326367656       -6.30541634817610
H           -6.81881466607460        0.67125004873223       -4.89339695845964
H           -2.26854439036049        0.55554787622189       -5.08579608230033
H           -1.59351884411876        0.11849094025623       -2.74727366560015
H           -5.45790623051980       -0.30480204611068       -0.86216648427463
H           -6.84691470737683       -2.15472386244095        0.01139789545426
H           -3.83910412198811       -5.30857687756620        1.17308082704605
H           -3.65179792535102       -7.75021895284808        1.47380106944577
H           -5.50748057899789       -9.03440800311004        2.44538588325795
H           -7.59064409778797       -7.90351600258680        3.13344983951756
H           -9.55555166341711       -6.17269308198726        3.66975151806650
H          -10.99841277850888       -4.19128322025535        3.95787136032086
H          -10.20682216094913       -1.96296727472975        3.29398532230425
H           -7.95748311648567       -1.66953854986818        2.32197674398962
H           -3.73574713017137       -3.20720851612036        2.70712522535599
H           -2.35217786650373       -1.35412168473388        1.82758728663279
H           -1.27419321189681       -1.65111625813015       -0.83199092741713
H            1.13014024072221       -2.20083524788580       -0.72610194253115
