80
 energy: -17.650576475812 gnorm: 0.000888220278 xtb: 6.5.0 (97a52f5)
C            2.52189706769567       -1.35276198315740       -0.03135290822024
C            2.57454468503899        0.03260669220746        0.15079944959094
C            1.45703298327193        0.79423762326128       -0.02489517696843
C            0.23013327800712        0.20780366210669       -0.39705366519958
C           -0.96187820044447        0.98834371817272       -0.58491224054356
C           -0.95645308264498        2.46437880689864       -0.41639350980597
C           -0.26144446503971        3.29567095592657       -1.33478914131636
C            0.44151509824158        2.74291743287394       -2.43207803403362
C            1.12762856484183        3.53148732196049       -3.30327541682656
C            1.14974998271061        4.91954514017789       -3.12838932402495
C            0.47275627977237        5.49176480878311       -2.09557643973205
C           -0.26800118904548        4.71067822247261       -1.17531991903211
C           -0.98926404704360        5.31086177841632       -0.10858457411470
C           -1.03048898155284        6.78651284125224        0.03947369924276
C           -0.57119836513448        7.41056264164469        1.20508626029406
C           -0.65492319500754        8.77194368697510        1.35909657657465
C           -1.19669619699766        9.58016080545066        0.35626895741111
C           -1.32319352518216       11.03975923027231        0.54073585267846
C           -0.40133231734799       11.75401885457628        1.31061807578564
C           -0.53804347565548       13.10719095507609        1.50389657431677
C           -1.59928997547182       13.80382756830134        0.93326470113071
N           -1.75197501732556       15.21382457011121        1.14892853571923
C           -2.02153092723704       16.18669173985440        0.16100860116771
C           -2.15445045663357       16.07338657424283       -1.22205861971573
C           -2.40917906871114       17.20569667766469       -1.95755743560848
C           -2.53120171498027       18.45278048528120       -1.34036106224877
C           -2.39265535974928       18.58410601083250        0.02148632318172
C           -2.12965324836767       17.44376831244617        0.77944550599218
C           -1.92131468171631       17.24519006372360        2.19625704630392
C           -1.93378383660182       18.12543388103423        3.27756416423544
C           -1.72816480418091       17.62119163901046        4.54030053790226
C           -1.51614625741713       16.25550191381145        4.74230651422145
C           -1.49708953073340       15.37804653706642        3.68513132256563
C           -1.69058912999851       15.87365354133315        2.39650298137636
C           -2.51654782297333       13.10106691907750        0.15775018210368
C           -2.38273178909970       11.74749752379131       -0.03320411251665
C           -1.63788959736578        8.96020131844434       -0.81563572959843
C           -1.55884218864033        7.59862579240743       -0.97070099530444
C           -1.68952044391422        4.47936105446162        0.80658736782006
C           -2.44949413928007        5.02728807406688        1.86899129533325
C           -3.11049439277070        4.23194333481632        2.75364169146274
C           -3.05519800429154        2.83971269497358        2.62748244703291
C           -2.35401073581919        2.27247971960806        1.60852491745553
C           -1.66423304805343        3.06369494282671        0.65880424493701
C           -2.13494833038476        0.33232005303088       -0.91889170382712
C           -2.17676169972811       -1.04849099786777       -1.08542945994881
C           -1.05094048213377       -1.80174794635690       -0.92010785917483
C            0.17571586334624       -1.19600940653498       -0.57159655421427
C            1.35186399546743       -1.95636483062621       -0.38261876839988
H            3.41193703955367       -1.94381196763514        0.11079044443494
H            3.50500386385834        0.49820104663334        0.43198194328374
H            1.50065640281693        1.85943217434085        0.11996315797298
H            0.43033071271797        1.67607387895860       -2.56979684913360
H            1.66058373987087        3.08846262626588       -4.12869210084780
H            1.70519645864910        5.53477485046925       -3.81735195128086
H            0.50403150483389        6.55874719223226       -1.96449219440705
H           -0.14959099913463        6.80168795568341        1.98649889521063
H           -0.32276276585225        9.22622694733852        2.27625895734884
H            0.43629896248706       11.23512931501219        1.74307690647596
H            0.18516571668354       13.65151449693960        2.08563705837067
H           -2.04520080310735       15.11301851983073       -1.69303017108852
H           -2.51433638681835       17.13207782877907       -3.02759713299455
H           -2.73404029239504       19.32427006362716       -1.94096209520374
H           -2.48163982046101       19.54097378260852        0.50496028997251
H           -2.10602560642261       19.17442664793062        3.11255217577322
H           -1.73591430562690       18.28747408235111        5.38729104675556
H           -1.36881561951100       15.88513944848431        5.74361717056471
H           -1.34867764152746       14.32394431888833        3.83619879582941
H           -3.34870930651835       13.63293829180766       -0.26924880611816
H           -3.11781894092907       11.21540976510703       -0.61146810707284
H           -2.03773755808928        9.56558959403317       -1.61036776064460
H           -1.92287147293457        7.13413005595117       -1.87110894104052
H           -2.50992659234103        6.09626495071130        1.96806395955590
H           -3.67926269382496        4.67269207772496        3.55610329852775
H           -3.57483050968800        2.21790660450556        3.33808720631571
H           -2.31512542554413        1.20141626246497        1.51712855739467
H           -3.02867240161252        0.91578538565204       -1.05947701829985
H           -3.10729689960529       -1.52443830317995       -1.34863900456236
H           -1.08712006620732       -2.86974944833715       -1.04942136218123
H            1.30896763289392       -3.02354940145825       -0.51708754451691
