52
 energy: -11.632470391447 gnorm: 0.000283532638 xtb: 6.5.0 (97a52f5)
C           -2.21599526102017       -1.05844034583624        0.14322760534893
C           -2.31831304457163        0.29744009061127        0.47416920829057
C           -1.29726725399883        1.15596039928283        0.18880070870698
C           -0.12579679950780        0.69136292398493       -0.44167599528999
C            0.97382438568493        1.52826205080257       -0.78635299732571
C            0.97306163532542        2.97806459197977       -0.47853544461653
C            1.01656318307090        3.92310660630882       -1.50427808157782
C            0.98404270150795        5.26733733588335       -1.22471226953699
C            0.91618890595935        5.71825532056328        0.09256877816667
C            0.85549376170288        7.13839245319271        0.40919710417310
N            0.96472240809956        7.62781223345833        1.64322334571327
C            0.82503246800554        8.96572633309685        1.52768122627313
C            0.85945954239980        9.97957048588478        2.55204705666471
C            1.09143557611448        9.63849611590349        3.88517726671324
C            1.12919929048591       10.60530175118098        4.85419544656520
C            0.93512023516580       11.93479842416677        4.51024324795234
C            0.70479614623444       12.29045431436768        3.20448288072366
C            0.65881825865680       11.33055795145698        2.18498975586044
C            0.41463528036112       11.68571271264992        0.78023745427744
C            0.18603867224325       13.00561981563031        0.36996459639409
C           -0.04213565849852       13.31410387372745       -0.94787040505082
C           -0.05071620736246       12.31757795535947       -1.91239663817252
C            0.16744034153487       11.01517491826929       -1.55019792234952
C            0.39937750682809       10.67906320568960       -0.21419106642606
C            0.61294351941040        9.31505374884983        0.18668672429456
N            0.64143404200857        8.14687154721279       -0.52020630717062
C            0.89325936952664        4.77605706784554        1.11862989245952
C            0.91733729340828        3.43175383349562        0.83999688019984
C            2.03827800499613        0.94912973064701       -1.43484909658296
N            2.14890036137164       -0.34532640992913       -1.76285385398894
C            1.14167287668741       -1.10719467160557       -1.43529522467920
C           -0.02611756866589       -0.66917829495515       -0.78248469735365
C           -1.09772797324427       -1.53636430860638       -0.47144445657961
H           -3.03030756828513       -1.72560175255756        0.37385373654482
H           -3.21097052002173        0.66306207174798        0.95447454083857
H           -1.38056676973012        2.19985703839137        0.43454662028660
H            1.06218921056519        3.58098592276911       -2.52383996932619
H            1.01534613793375        5.98441847471639       -2.02537268492414
H            1.24225556960516        8.60251865313935        4.13446617156686
H            1.31083007043774       10.33484851586303        5.88145321640173
H            0.96664201716615       12.69321070391133        5.27541412166654
H            0.56047694476237       13.32833038640875        2.96661675613821
H            0.18339342535293       13.79720651460023        1.09658633823328
H           -0.21755998822415       14.33741072772137       -1.23725853122827
H           -0.23114200559517       12.56870317475294       -2.94480815698957
H            0.15912794322176       10.23559837626713       -2.29141501233167
H            0.48701505575643        8.04142676824030       -1.52378867024364
H            0.84791624971300        5.12370831947860        2.13605176635752
H            0.89636269494568        2.71032153319988        1.63861005303613
H            2.87251447946227        1.57763484544878       -1.70176884550984
H            1.21912421576243       -2.14947852244874       -1.69805076062066
H           -1.01960316275538       -2.57784551221860       -0.73115541194055
