68
 energy: -14.950480315388 gnorm: 0.000614925636 xtb: 6.5.0 (97a52f5)
C            2.96131839876468        0.13850634635995       -0.17386028281650
C            2.59757514187962        1.48605383198660       -0.20716860082478
C            1.29407274898852        1.84889163110012       -0.05862995495326
C            0.27382325578551        0.89084801467791        0.13286195294328
C           -1.11229586612053        1.24129066490177        0.29482671585700
C           -1.56205341072195        2.62488337291712        0.26971080237910
C           -2.84644393434088        3.08497113575137        0.41881138057706
C           -2.97983673716665        4.49084823095702        0.34331508161957
C           -1.80283020795490        5.15171352973328        0.13410548241141
C           -1.66195315482131        6.58091379951741        0.01464497099806
N           -0.50347049535005        7.22035266775735       -0.18430968418773
N           -0.74352928670041        8.48934224091396       -0.24661288781555
C           -2.05725394631205        8.67681530707738       -0.08785485887944
C           -2.71506637720498        9.97199582569415       -0.10256199295357
C           -1.98539530267131       11.14175989309475       -0.30173544523214
C           -2.61596329418937       12.36026470185544       -0.32164280670036
C           -3.99463603894203       12.44547093215473       -0.14132833785129
C           -4.66996091300541       13.73164404503519       -0.16188967841187
N           -4.06173486140247       14.90396175212474       -0.36575046168391
N           -4.95443325518675       15.83783473380323       -0.31948100496536
C           -6.14502178606945       15.27383083773419       -0.08491343522851
C           -7.38729516554706       15.99435145127170        0.03853692893086
C           -8.59802208571020       15.42121792658099        0.30282355835354
C           -9.66082527696914       16.34572918096500        0.38137650404565
C           -9.28802852378575       17.64763039028896        0.16954510825758
C          -10.14548985014257       18.83102998733188        0.19934008512786
C           -9.65079812382363       19.99437526535907        0.75533117274366
C          -10.42955535012416       21.14231258290216        0.87208127913843
C          -11.71799867412971       21.14931298037044        0.42874024395330
C          -12.27546482388800       20.00374519887861       -0.17807571430055
C          -13.59950488753074       20.00615446104239       -0.67103446021962
C          -14.11093017603488       18.91108830918819       -1.29792344104126
C          -13.32435654027939       17.76992808046378       -1.47302558718197
C          -12.04601994474581       17.73337786963626       -1.00106775092907
C          -11.48637059617210       18.83436481411016       -0.31781191498313
S           -7.56644778277627       17.71489055683129       -0.11950354125449
O           -6.00348349013224       13.92490371826386        0.02119152464390
C           -4.72310916743055       11.27651470578619        0.06033424741913
C           -4.09261351348644       10.05749769973204        0.07847289919432
O           -2.68008045864408        7.48024497980116        0.08349194642980
S           -0.50518881076222        3.99645613154083        0.03455890680099
C           -2.02739227929264        0.22161308696399        0.47453242467665
C           -1.64319685934672       -1.11640637737460        0.50252452638933
C           -0.33524533637474       -1.46428294560879        0.35127773620539
C            0.65212445478011       -0.47513925608417        0.16404846453624
C            2.01314249068612       -0.82145442137772        0.00714537153029
H            3.99595763830611       -0.13885062595570       -0.29193213183313
H            3.35407026825574        2.23983632490597       -0.35114843221941
H            1.03642924595737        2.89991933699494       -0.08736726661056
H           -3.69216651735792        2.43680261821086        0.58308953866228
H           -3.92103282602493        5.00951880658478        0.44273750617589
H           -0.92057475927056       11.07165332565165       -0.44106446503471
H           -2.05607542228100       13.26621575315099       -0.47644640121697
H           -8.71365260568978       14.35789993965287        0.44651979175193
H          -10.66795069739014       16.05810471642476        0.64027850162446
H           -8.64004693931283       19.99726536989887        1.12486947779767
H          -10.01043931955053       22.02697753528783        1.32279245540365
H          -12.32093146067579       22.03556867612910        0.52393524102831
H          -14.19855683640042       20.89194134167741       -0.54990567344499
H          -15.12126391473020       18.92624769461874       -1.67237775205150
H          -13.73156675133505       16.91719560214938       -1.99094431612268
H          -11.43962051643768       16.86514365372699       -1.18292007437414
H           -5.78807458656599       11.34872010630999        0.19975039239810
H           -4.65090754971307        9.14992631486186        0.23170460851157
H           -3.06792703580898        0.46319190825697        0.59533882959075
H           -2.38877148755450       -1.88143205903591        0.64542947374014
H           -0.04082388656948       -2.49917258979156        0.37338993162529
H            2.29156605454483       -1.86069362176663        0.03273329172860
