110
 energy: -24.196041587425 gnorm: 0.000517226711 xtb: 6.5.0 (97a52f5)
C           -1.87195675266139        0.97985848578715        2.51314919750355
C           -2.16481588816674       -0.33631237657596        2.15372083528934
C           -1.21785432940915       -1.10479573418736        1.54275442925674
C            0.06287041261948       -0.58954440802081        1.26089718373575
C            1.07334132668842       -1.36778041791723        0.62602650588765
C            0.82168502041823       -2.78233407607064        0.25024003168075
C            1.49644539909803       -3.82090440416866        0.89581605718542
C            1.26149675633427       -5.13008834824229        0.55628043025007
C            0.34345225908945       -5.45138392033152       -0.43887102566687
N            0.09427214223413       -6.82136227577029       -0.78593615166412
C            0.06051209025393       -7.35666265726363       -2.09170408598850
C            0.26397224752584       -6.75380694037872       -3.33246333230013
C            0.18828321463617       -7.52813479456726       -4.46428347346789
C           -0.08254240133942       -8.89665484563973       -4.38409538713580
C           -0.27644259494858       -9.50870414635999       -3.16884524507406
C           -0.20223773752513       -8.73466268319429       -2.01048371521619
C           -0.33814011067609       -9.06436309161764       -0.61066106076941
C           -0.60793497902720      -10.26343124170693        0.04969862790475
C           -0.69005235056260      -10.25635376953563        1.42165773196366
C           -0.51124797567965       -9.07490373269892        2.14604888730280
C           -0.24417392010734       -7.88762846968276        1.50934557741995
C           -0.14993407205387       -7.87786673560829        0.11810556957431
C           -0.33107428501545       -4.42023787371886       -1.08627022277319
C           -0.09718978262093       -3.10968740620466       -0.74930601683944
C            2.29694733634041       -0.76797625745442        0.40045620803831
C            2.50786504226824        0.56514297447937        0.82237375534009
N            1.58406588426673        1.29974505242838        1.42448180711431
C            0.36672753832980        0.73694241337522        1.63385507103607
C           -0.63728353019619        1.50211501932995        2.26126643528876
C            3.82253098623493        1.17967230393818        0.60263195026227
C            4.17730650901951        2.33209478784677        1.29866635743533
C            5.41431579775097        2.92334449972276        1.14266903950931
C            6.33388366982210        2.35751845484181        0.24968286200375
C            5.97025438611372        1.21870275077756       -0.46389785089616
C            4.73835984481398        0.61966187995903       -0.29780759285987
C            4.36573964494500       -0.61263585804257       -1.06770910456916
C            3.40848992998759       -1.52372709468828       -0.27767202178069
C            7.66661582436661        2.94408134394252        0.06541848013179
N            8.35653119119819        2.56729308166789       -1.00116365637704
C            9.59131634186849        3.10292624343664       -1.17665152711392
C           10.34196062370548        2.72466255154841       -2.30829495501201
C           11.59571343833175        3.21710923627489       -2.52324082127657
C           12.16463796996998        4.11102867953737       -1.61523421390362
C           11.46576875173250        4.50063917310043       -0.51051904250589
C           10.16544639846338        4.01589943392831       -0.26681453124071
C            9.41267086481076        4.40010605162729        0.88014912958277
C            9.98360418951273        5.32703991154061        1.89023819683205
C           10.28075409375463        4.88010418201870        3.17969414198570
C           10.81427182633284        5.73288608424400        4.11387960582380
C           11.07232119190992        7.06269252042549        3.79537872024242
N           11.63578740745932        7.95050607889266        4.77191083584390
C           11.17242836172900        9.24695296626192        5.08369484292330
C           10.09414664711481        9.97675961493571        4.58471762750281
C            9.85583750511989       11.23220507858194        5.08807587180063
C           10.67042423526468       11.77509881126317        6.08523656025385
C           11.73140956046993       11.06566389715131        6.59518098274452
C           11.98523384913615        9.78867087465354        6.09383091201398
C           12.98434854883800        8.79732892763975        6.41898982174563
C           14.03856813094383        8.79141667719214        7.33289335531509
C           14.84334835747413        7.67948111065596        7.40357598929311
C           14.61740862553114        6.57529228338824        6.57759708874483
C           13.58137471115996        6.56588389418553        5.67598735349112
C           12.74862011772219        7.68164927017453        5.59797265155741
C           10.77764535135693        7.51353383164174        2.51194075255536
C           10.24297724045365        6.66288597363805        1.57588559978223
C            8.15021461319166        3.85965867144401        1.02849847224745
C            7.29230805380118        4.22607137074211        2.21015208157414
C            5.78424214841365        4.15995960448453        1.90697708529340
H           -2.62487323907499        1.58276482182863        2.99384195551705
H           -3.14077707800178       -0.74386360263386        2.36076175047844
H           -1.44170113647215       -2.12130539431077        1.27132132651320
H            2.20163428066333       -3.57914025705391        1.67226357554642
H            1.79600519785921       -5.92508460559381        1.04597080945498
H            0.48611590093963       -5.70326427509585       -3.38682449884822
H            0.34246210579173       -7.07456136545991       -5.42964098766620
H           -0.13577929394441       -9.48029325037996       -5.28840828894435
H           -0.47934817675532      -10.56271127983795       -3.09742293598300
H           -0.74927011257217      -11.16740440575110       -0.51602594733597
H           -0.89904210161406      -11.17369384373412        1.94709285305102
H           -0.58638836317661       -9.09626728573422        3.22091710913503
H           -0.11981231546456       -6.97278647573590        2.06028838845153
H           -1.05362105608449       -4.66804128700521       -1.84388346007683
H           -0.62021551357550       -2.31606320694849       -1.25461920172638
H           -0.40317200304523        2.51467443271269        2.53979621932545
H            3.46406693709931        2.76156472726543        1.97842760081286
H            6.67744412151231        0.79853039857487       -1.15568105306744
H            5.27621915280300       -1.15829571299778       -1.34555583989515
H            3.89843133718943       -0.30995244969999       -2.01212135698092
H            3.96988941799396       -2.07777488106080        0.48349305122992
H            2.97712513048921       -2.28346490544390       -0.94117519906089
H            9.89898867606384        2.03154907792265       -3.00185797797239
H           12.15218466072399        2.91415954407076       -3.39503412816787
H           13.15774252774120        4.49186082763147       -1.78895468878452
H           11.90707926333095        5.18453040076968        0.19276253949101
H           10.09086323676078        3.85051092176875        3.42967538198427
H           11.02597021456702        5.38715436735675        5.11045777216374
H            9.46226772875793        9.54790982958214        3.82790764957707
H            9.02633455736023       11.80734625276874        4.71053172655232
H           10.46035377182690       12.76266471217911        6.46184191297940
H           12.35979991594755       11.47339691923961        7.36723441297187
H           14.20858719125415        9.64782494021378        7.96125625862516
H           15.66340566859689        7.65952904239566        8.10242282515233
H           15.26789771606573        5.71898130676933        6.64852935192678
H           13.41025978058455        5.72460779549807        5.02874336784873
H           10.99272708715686        8.53695107076257        2.25929812022360
H           10.01502339632041        7.01748231690572        0.58540924709885
H            7.56385035232517        5.23078023165528        2.55701426541159
H            7.53219614634156        3.55027139204565        3.03918230630487
H            5.48203120439674        5.03786559587703        1.32401399021790
H            5.20182081109196        4.20244506549876        2.83590412052490
