116
 energy: -26.187211814699 gnorm: 0.000947669511 xtb: 6.5.0 (97a52f5)
C            2.05339948811723        2.92826617918331        4.52978041640952
C            2.47564617958440        3.85742482294366        3.57182672391581
C            1.87528085631524        3.90525860959249        2.34982241448575
C            0.82716070340947        3.02159162418672        2.02766169001938
C            0.19796840083553        3.04646340638549        0.75038575754238
N            0.63952285597873        3.98580039005133       -0.24938721901289
C            1.87043192913664        3.97985422881593       -0.93788117615436
C            2.90676474149113        2.96518927008381       -0.78692489816978
C            2.56893895655985        1.67341276567098       -0.42281757044153
C            3.52264121893709        0.68979117292228       -0.23999590656233
C            4.87278832353875        0.95226919790599       -0.39870051669554
C            5.87254487949411       -0.11934463429749       -0.17206688651640
C            5.88200229182765       -1.24010526826742       -0.98702549788391
C            6.83780254162096       -2.22971395470539       -0.84731654989327
C            7.82294001029311       -2.15874125870069        0.12178821521738
C            8.79275517138310       -3.25398752799254        0.21926262148162
N            9.39477605699782       -3.77707577192271       -0.84237066624763
C           10.14480628511112       -4.80206342696195       -0.38924050000631
C           10.99711152191539       -5.68073991594584       -1.14793792703178
C           11.16533729981686       -5.49915900684512       -2.52184546272336
C           11.98690172465970       -6.32777324101404       -3.23811561134685
C           12.65907793837099       -7.35696232333500       -2.59483704844015
C           12.50421877519921       -7.55313557562341       -1.24502797843477
C           11.67037945879880       -6.72673597541377       -0.47906272441568
C           11.47158050822999       -6.92171359061215        0.96133171475386
C           12.08838010571515       -7.96870440202606        1.65976390187923
C           11.86848128651152       -8.16190915603879        2.99989595673391
C           11.01599478919658       -7.32022459469654        3.69774219902629
C           10.39983691321429       -6.28519926125638        3.04936945015704
C           10.61989041800480       -6.05248037963188        1.68764939815284
C            9.98551719345939       -4.96461863494909        0.98876856490048
N            9.13272449522186       -3.95122226401098        1.39790462764634
C            8.59336575114989       -3.71286728255546        2.71282878963644
C            7.24405750084290       -3.83426310956111        2.93512982585380
C            6.69287642518637       -3.56492837086268        4.18758553411006
C            7.48632451182749       -3.16698948935280        5.22301130710299
C            8.87972603609041       -3.01996143461931        5.04637565329331
C            9.72948853486497       -2.59419768071980        6.09195059397331
C           11.06839823836253       -2.44912370785457        5.88451029201513
C           11.62486813982499       -2.72116399409751        4.62968874048409
C           10.83272974821011       -3.13512851716661        3.60160700128278
C            9.44387092743826       -3.29720517796697        3.78011475320560
C            7.86326165301452       -1.00953156772017        0.97704812379472
C            8.88417662824204       -0.82672608228158        1.92742770310407
C            8.89413784171960        0.25082339851225        2.76210666277310
C            7.88497340480389        1.21045147601026        2.67710883357691
C            6.89912043594135        1.08636160395041        1.74270083861291
C            6.87115260810147       -0.00728948575332        0.85218847533236
C            5.27135303260973        2.27002918131566       -0.80220787316457
C            6.62608126016047        2.59187243837286       -1.02772534767158
C            7.00295973594850        3.84869744013203       -1.39788710698060
C            6.04145124389071        4.84386582915779       -1.57200659548438
C            4.72236661430208        4.55974888341196       -1.38044174945104
C            4.29142453027243        3.27433268756623       -0.99668391243045
N            1.98777781921001        5.05114342584670       -1.71283550579309
C            0.85858752653828        5.77049227249663       -1.55252308978707
C            0.50874862215568        7.02494020023801       -2.16707523577302
C            1.35790085266235        7.62278334057925       -3.09999983742679
C            1.01840308954111        8.81165430983211       -3.68819656998941
C           -0.17891446926146        9.42844067658442       -3.35528494145640
C           -1.02641971354731        8.85676529173589       -2.43896621810338
C           -0.71276249850720        7.64132187591560       -1.81521995844239
C           -1.59180438654211        7.01077447852951       -0.82379647204795
C           -2.79435464268781        7.60326007753662       -0.41497032245446
C           -3.59606257835730        7.01520570372934        0.53022691927583
C           -3.22826191857352        5.81022966931889        1.10953584915319
C           -2.06316119204713        5.20048856698448        0.73237430794721
C           -1.23088300785835        5.77364216866426       -0.23466966949046
C            0.00471972595101        5.15478669668410       -0.63599234781054
C           -0.81268165852674        2.15744177856559        0.47607381743290
C           -1.23823113596781        1.23680602854674        1.43364904220358
C           -0.65139854391931        1.19535145676585        2.66452384147260
C            0.39804041527325        2.08223328016785        2.99253132720744
C            1.03921083861956        2.06125306815221        4.25161134847831
H            2.53534251604774        2.90148333622157        5.49336676417757
H            3.27943035645889        4.53664095517630        3.80418068389992
H            2.19667432576439        4.61498211637794        1.60824875795200
H            1.53194097409996        1.43151989003446       -0.27996120779011
H            3.22100157520296       -0.30136903925233        0.05230631134386
H            5.13703755938030       -1.32086540608176       -1.75986215675356
H            6.82506998764098       -3.08563615304070       -1.50000263006257
H           10.64004722773228       -4.69294846904811       -3.00379218689118
H           12.11308398235820       -6.18016181726264       -4.29821785775450
H           13.30558185792334       -8.00736412621246       -3.16121979490366
H           13.03613259107817       -8.35881024903211       -0.77328998063326
H           12.74528414081179       -8.64191840581835        1.14020923530958
H           12.35480723619962       -8.97513886853298        3.51371092020622
H           10.83902603605695       -7.48213232848595        4.74853180197901
H            9.73102147642501       -5.64109954288937        3.58806572948228
H            6.61244305168512       -4.13459902574937        2.11751639664404
H            5.63003651121752       -3.66794330915062        4.33299407477778
H            7.05786087730018       -2.95475658666199        6.18722861469714
H            9.30191800819115       -2.38228847833831        7.05674649219292
H           11.70574989045868       -2.12225983445341        6.68976780522170
H           12.68541695450443       -2.60309265317376        4.47908599509241
H           11.25814743225413       -3.34983816602120        2.63728894600076
H            9.66139269661099       -1.56456517806989        1.98942670220843
H            9.67681018000361        0.35732615866952        3.49533682102691
H            7.89215769781747        2.05581562317026        3.34554243558636
H            6.12763042802689        1.83313751287362        1.67262326475404
H            7.36996516509201        1.82515366790167       -0.90105256530802
H            8.04418531537299        4.07597328402435       -1.55821005577831
H            6.34461124987958        5.83525996825792       -1.86668477034359
H            3.98651301644750        5.32519246837035       -1.53471256479722
H            2.28134893745686        7.12926721565329       -3.34888010259033
H            1.67768137712624        9.26591718070695       -4.40967270386742
H           -0.44330792195175       10.36371830556224       -3.82131943871307
H           -1.94763210430885        9.35622086999272       -2.20123287685351
H           -3.09925437116127        8.54123178074111       -0.84154071540864
H           -4.51533545626827        7.49279068252462        0.82811254303302
H           -3.85944081164108        5.35609995974802        1.85588951474448
H           -1.77343709615287        4.27235006275613        1.18742973152469
H           -1.27338909125112        2.18340617772370       -0.49606346952643
H           -2.03597459645714        0.55267467859285        1.19487148968543
H           -0.98010250471526        0.48207906607465        3.40043254533562
H            0.71529205532529        1.34747376795661        4.98925516114075
