50
 energy: -11.037754677214 gnorm: 0.000568226440 xtb: 6.5.0 (97a52f5)
C            3.09650787233146       -1.97819099829649       -2.12683062563206
C            1.79815715889894       -2.24970110546077       -2.52908790844475
C            0.72378092087271       -1.64825030910573       -1.89964336139378
C            0.96597061861792       -0.77138102575274       -0.86355805910491
C            2.27214873233561       -0.49337878796544       -0.45531273374373
C            3.34559917515173       -1.10072468940896       -1.09049412571643
C            2.24031698570716        0.46963390212282        0.65793765026593
C            3.27414136630448        1.05337516014586        1.37577288861526
C            2.96476668852473        1.94734433723192        2.38146830668452
C            1.64591193196184        2.26054407143747        2.67076894769275
C            0.61112378211714        1.68425384232543        1.95733854469468
C            0.91388042888433        0.79056291056215        0.95207489135002
C           -0.00794098208653        0.01629275214290        0.01137361434624
C           -0.92624169054488        0.93083560612405       -0.79355239263826
C           -0.61710783321554        1.96371307458855       -1.65291422337628
C           -1.64739911170339        2.67156991633317       -2.24367057086928
C           -2.96837802412488        2.35268627907099       -1.97280004050836
C           -3.28210889367844        1.32040099561905       -1.11317766502592
C           -2.25523193085889        0.59714960564017       -0.52135889235546
C           -2.29197257428833       -0.52922785854600        0.42691973823845
C           -3.37964000722530       -1.21080498848914        0.99955772037032
C           -4.78300606455321       -0.87292923784173        0.66046267086125
C           -5.62186487994928       -0.24424430865599        1.56806142718046
C           -6.90560075804792        0.06663946398160        1.19517859826585
N           -7.42741068571837       -0.19212281929650        0.00698646115323
C           -6.62411706977032       -0.80161655840653       -0.84983245223646
C           -5.32604716534284       -1.15886239342788       -0.58345780123532
C           -3.09282165442609       -2.22647671119899        1.91337255858014
C           -1.79313502791927       -2.56298654156169        2.23862121388756
C           -0.72732755163088       -1.89488392525744        1.66402958188406
C           -0.98421857025745       -0.88416575722755        0.76351134984896
H            3.92128854646501       -2.45743056391856       -2.62835172187056
H            1.62327495550358       -2.93713174015704       -3.34040095083388
H           -0.28878251463713       -1.85219879232176       -2.20102392731321
H            4.35008890610390       -0.88440284421678       -0.77189554211741
H            4.29512763589651        0.80649784763799        1.14362798231587
H            3.75822855140286        2.40689512401368        2.94773335507707
H            1.42351669912570        2.96077851229350        3.45918048793133
H           -0.41685667936558        1.92025141318758        2.17020491568787
H            0.41301024974857        2.20583321040595       -1.84772225789890
H           -1.42006102981948        3.48111857816096       -2.91765520640057
H           -3.75975302946077        2.91787820737852       -2.43729957660908
H           -4.30535474432955        1.07721900857321       -0.89417794223029
H           -5.25421603035931        0.00077512382616        2.54960668748140
H           -7.55445756589974        0.55924092267218        1.90324869796179
H           -7.04128674084746       -1.01946012257440       -1.82116273789387
H           -4.72135145486216       -1.64869948731248       -1.32720214270643
H           -3.91390653497832       -2.75649057222949        2.36464944867889
H           -1.60673953756489       -3.35376478857945        2.94658667414122
H            0.28978513151108       -2.14539293826177        1.90983844496146
