59
 energy: -13.153362400568 gnorm: 0.000621624811 xtb: 6.5.0 (97a52f5)
C           -4.22901757364847        0.66032310191445        0.38459806922510
C           -4.12671931495894        1.97714308629647        0.80580693243019
C           -2.92541760824687        2.65622141261019        0.71732810150171
C           -1.82966991532734        2.00052830189189        0.19847728704843
C           -1.92405583660878        0.66841930357988       -0.21691197049562
C           -3.13423966814875       -0.00384726835510       -0.13148944847284
C           -0.63504742220214        0.24709741780751       -0.79589716989934
C           -0.26561023500618       -0.94576591083562       -1.39999578069054
C            1.00646584314381       -1.06040834613772       -1.92458240113455
C            1.90093560642660       -0.00366265301341       -1.85457998036241
C            1.53905397555548        1.18870674707552       -1.25545290999782
C            0.26953685396377        1.31009552747210       -0.73225026381349
C           -0.38629436708837        2.47304292354261        0.01023686942150
C            0.23581014106734        2.64237376618363        1.38594329457934
C            0.42787115768638        1.70495839552505        2.37933226617097
C            1.05448659280014        2.08978863995040        3.54825881461388
C            1.49575448492413        3.39245533374237        3.70531483365584
C            1.30326322953336        4.32938335857567        2.70952778761568
C            0.63635135435308        3.96433241823826        1.54222840815109
C            0.33705715240114        4.70102058307484        0.29863837638417
C           -0.19635314567703        3.85431514424986       -0.65908328142637
C           -0.28839790585402        4.27075724915840       -2.03563313491267
C           -0.85239569116247        3.46708122168441       -3.11318820212728
C           -1.68405940680311        2.35669511518490       -2.89891149817585
C           -2.17166929581060        1.59634297843877       -3.92349687263146
C           -1.87057483476743        1.92251141475871       -5.24168839928835
C           -1.11575235742677        3.02717938751971       -5.50659404466242
C           -0.61771603858051        3.82983839806680       -4.46085925804710
C            0.07846683675873        5.02864782637639       -4.74796257201601
C            0.47637719368833        5.84833785334040       -3.75131010645258
C            0.28292805234294        5.52058297405917       -2.38109353747248
C            0.67969614894373        6.46408546037944       -1.35570214003399
C            1.05150680818837        7.79145473711979       -1.65483741315380
C            1.36343761739368        8.68413428611881       -0.66879072591190
C            1.29930421169443        8.30041642717443        0.66630500993401
C            0.94784398971391        7.02227312269665        0.99278343571916
C            0.66206002176842        6.06806266299157       -0.00178466866003
H           -5.17522900041316        0.14944058453314        0.45717512237600
H           -4.99249926884914        2.47806990414112        1.20703172416602
H           -2.83197507908750        3.67714329019804        1.04402418032268
H           -3.20860364142404       -1.02097269006215       -0.47414007119817
H           -0.96888080503845       -1.75773234611513       -1.45903635773091
H            1.30632081995362       -1.98169119183241       -2.39669526443426
H            2.88928575499650       -0.11166541127165       -2.27051232350252
H            2.22438780232850        2.01576999325270       -1.19151857006734
H            0.09413219911496        0.69305347503958        2.22968583212136
H            1.21173122300983        1.36959941035501        4.33442900344112
H            2.00497555307972        3.67607427859497        4.61200688825150
H            1.71567115777083        5.31379445885265        2.82244938664162
H           -1.97991866139170        2.12867510382965       -1.89921686685444
H           -2.79837294034211        0.74528628088560       -3.71134516256286
H           -2.25215427533361        1.31771357236728       -6.04813281582992
H           -0.90517227529534        3.30795392358588       -6.52443179553760
H            0.25248204909808        5.29560268275434       -5.77641899160666
H            0.99185962621075        6.75532685288752       -4.00881587607499
H            1.06604538231838        8.12695108544244       -2.67547754091152
H            1.64008296028397        9.69462463299779       -0.92262669195527
H            1.51477097365476        9.01811490604970        1.44125354475422
H            0.82187379032851        6.76073480506486        2.02618893959463
