50
 energy: -11.038716370673 gnorm: 0.000538347551 xtb: 6.5.0 (97a52f5)
C            3.21665435165237       -1.85371195460998       -2.11563584275900
C            1.93437909281000       -2.18581758928485       -2.52362101459576
C            0.83050016604801       -1.63474248156245       -1.89947577485821
C            1.02699740001369       -0.74739857620474       -0.86276360452468
C            2.31621766091486       -0.41001044569616       -0.44703022435519
C            3.41979055029635       -0.96628295814055       -1.07763194341187
C            2.23236671523888        0.54332098756087        0.67154634459650
C            3.23441376094394        1.15403742933257        1.41160733734820
C            2.87921381217721        2.01649219814355        2.42935047794465
C            1.54576653067758        2.26956940843862        2.71067230617767
C            0.54226549082994        1.66399977954517        1.97688670992275
C            0.89053960746170        0.80296802038848        0.95796932770098
C            0.01182973928379        0.00149629513051       -0.00112484371762
C           -0.92413697484524        0.88188842434608       -0.82749075949397
C           -0.64062925638736        1.92671837587417       -1.68096686082802
C           -1.68554924903734        2.56620572346327       -2.32244381254414
C           -2.99583572115322        2.16527481002370       -2.11289539371790
C           -3.28665453824766        1.12015157578430       -1.25923819164874
C           -2.24273387424235        0.47418088822272       -0.61186888832095
C           -2.25577775653656       -0.64809205447793        0.33799495804812
C           -3.31226958911599       -1.38794756340635        0.85060759842770
C           -3.04423874770137       -2.40776117152105        1.73756181357964
C           -1.73515225167803       -2.71058936861685        2.13394840735804
C           -1.46759078817811       -3.80644559499978        3.08857112099178
C           -0.48378342256848       -3.70689307044540        4.06165084109449
C           -0.27233461583787       -4.75601809487454        4.92143040713531
N           -0.94585480315157       -5.89453391326703        4.89984489440520
C           -1.88054746171672       -5.98476657074304        3.96803230362937
C           -2.17807163191611       -4.99790636300880        3.06118774191809
C           -0.68113005721954       -1.95829760584621        1.61036021758802
C           -0.94594175446414       -0.94187030451422        0.72276922864475
H            4.06515896022831       -2.29358121114989       -2.61361039677517
H            1.79511051125293       -2.88130306869576       -3.33494435185207
H           -0.17013761757083       -1.88518332436138       -2.20544044834519
H            4.41167020997970       -0.70400353286008       -0.75422546208925
H            4.26677288300145        0.95101462527379        1.18734113939416
H            3.64771388137885        2.49779503606603        3.01176793456770
H            1.28758672374391        2.94471145352332        3.50997694225657
H           -0.49639338857637        1.85100454618565        2.18639409107544
H            0.38073084596808        2.22768739330139       -1.83560219112663
H           -1.47784298838056        3.38416291648804       -2.99263626109531
H           -3.79702624253030        2.67524138537969       -2.62229158370866
H           -4.30072452173084        0.80314457522606       -1.09080247249209
H           -4.32036083841976       -1.15926364262420        0.55292294682637
H           -3.85590149298797       -2.98025354491435        2.15172237089901
H            0.09530340868979       -2.80345525336300        4.14539762929396
H            0.49151121386064       -4.66958615177463        5.67925630402512
H           -2.43240424369462       -6.91216835823953        3.93671761948246
H           -2.94270292256070       -5.14737641204822        2.31857940850609
H            0.33486323400043       -2.17818566645174        1.88200189941780
