67
 energy: -15.139711192355 gnorm: 0.000180124430 xtb: 6.5.0 (97a52f5)
C           -4.55478963552948        1.51464663761439        0.17376989922381
C           -4.32213564757387        2.75864907765380        0.73908314096745
C           -3.05231435703392        3.30570292515528        0.74497774310121
C           -2.01886161291536        2.59103184113103        0.17853951486857
C           -2.24826607999372        1.33752628027871       -0.39302738760590
C           -3.52463890765355        0.79513661017042       -0.39756868429769
C           -0.98414478586502        0.80573977020875       -0.92672889485995
C           -0.70879550099574       -0.38699947495415       -1.57921840283623
C            0.58488175978627       -0.63711786047573       -1.99170700626907
C            1.59335164790863        0.28548476457159       -1.76180140719726
C            1.32564101770632        1.47482916844507       -1.10999369195877
C            0.03624714984699        1.72845353384286       -0.69373890689900
C           -0.53520062190342        2.92570271339475        0.06035811548637
C            0.14637410815715        3.12149034270675        1.41988127828282
C            0.21596790339115        2.28671466238900        2.51442958717485
C            0.92023958855951        2.70545405964512        3.62946127491023
C            1.54896393616571        3.94162609706457        3.65111025822054
C            1.48644889876461        4.78346680385671        2.55949534862296
C            0.78215612239674        4.36567633322926        1.44223074667619
C            0.53891833340466        5.03641841585995        0.17735866934660
S            0.83285123703681        6.41334535918792       -0.71433921338376
C           -0.00343693372607        6.09643142346517       -2.12060517491866
C           -0.56331775003837        4.84532384503301       -1.90974390009930
C           -0.25490927610587        4.25705370009570       -0.65069458161920
C           -1.41405908660175        4.48304616545789       -3.13517427696357
C           -2.89234514310432        4.32143512085442       -2.79298226983642
C           -3.76377417455956        5.19980919541911       -2.18537492869089
C           -5.08065207213381        4.81744758227230       -2.01025521030552
C           -5.51875338467937        3.57437659906644       -2.43910237908653
C           -4.64952489230745        2.68973663499062       -3.04588498269154
C           -3.32627761477037        3.06672277625088       -3.22220750388620
C           -2.19274717832877        2.34006959793174       -3.81612593596207
C           -2.12864817978668        1.06748018013283       -4.36361160749840
C           -0.92052003484911        0.61503458129433       -4.85456963877650
C            0.21089340032949        1.41384616447478       -4.79935769715128
C            0.15397490300748        2.68266380387658       -4.25288398369402
C           -1.05004941519561        3.14138538549768       -3.76344576513831
C           -1.17301503265842        5.67115469065976       -4.07406380688812
C           -1.63933416594384        5.91372384467420       -5.34820618041655
C           -1.27978468458822        7.09250136304628       -5.97736586538117
C           -0.46621973034374        8.01881258865264       -5.34179897294435
C            0.00406321195088        7.78564155668214       -4.06559483322880
C           -0.35515187328694        6.60619463854913       -3.43414662295336
H           -5.55234338351028        1.10696033726611        0.17378657193928
H           -5.14032613249251        3.30866917727613        1.17412616308066
H           -2.85928731329497        4.27205078336300        1.17694307225525
H           -3.69691645172351       -0.16755848327209       -0.84567193339498
H           -1.49881283874760       -1.09407515368408       -1.76102108268581
H            0.81178149377951       -1.55788029855112       -2.50359427334757
H            2.59643483658847        0.07545758263173       -2.09502039170260
H            2.09853725418907        2.20017926710365       -0.92460991907341
H           -0.27294636853140        1.32864206778290        2.48698078798874
H            0.98081162571089        2.06192148472106        4.49170103191449
H            2.09167998509914        4.24928104918498        4.52984214126124
H            1.96505053625181        5.74715677035402        2.55786275303312
H           -3.40965677606124        6.16155149868627       -1.85746663536018
H           -5.77205089890033        5.49314677786978       -1.53410530443344
H           -6.54838269216001        3.29246864210232       -2.29178238875205
H           -4.97952961971875        1.71989209329588       -3.37395746857153
H           -3.01030218202486        0.45188225729704       -4.39500169966049
H           -0.85544973528969       -0.37321459825733       -5.27936859228351
H            1.14683207449043        1.04072225817113       -5.18148180472346
H            1.02579654636820        3.31104976275077       -4.20056467832077
H           -2.27217782846598        5.19026015707463       -5.83173873612864
H           -1.63742087340722        7.29285863835880       -6.97396713208880
H           -0.19730146552159        8.93050469334092       -5.84960026430620
H            0.63806476204124        8.49056373559979       -3.55678608008214
