36
 energy: -8.431966714112 gnorm: 0.000762465929 xtb: 6.5.0 (97a52f5)
C            1.53673644866337       -0.07349599270573        0.37032647247150
C            2.73779324156223       -0.05538415175411        0.19174674629926
C            4.13773406169080       -0.03283133711434       -0.01427219961709
C            4.82264967906555        1.17219344917251       -0.11737633152118
C            6.18457843230427        1.19459740998791       -0.32277003755625
C            6.90753748318177        0.01233061606579       -0.43145837590675
C            8.30044779537254        0.03732572078547       -0.65393665973366
C            9.50169013579023        0.06727513679277       -0.86897748605713
C           10.88294655962764        0.11512722821676       -1.15002917510487
C           11.56090801810166        1.30587111820790       -1.29138798780249
N           12.84040870116198        1.37806436908495       -1.57378466596980
C           13.46810074511946        0.21088067679556       -1.72046672883058
C           14.84133757964073        0.26338844149552       -2.04379788351931
C           16.02538427656821        0.31807122816646       -2.34241649811293
C           17.38808938788784        0.38744305637233       -2.69614477877010
C           18.01555645974459        1.61721605067592       -2.86140493676466
C           19.34655612561168        1.68697046616130       -3.21302984921116
C           20.07199990785108        0.52934345964264       -3.40514818702890
C           19.46424246112363       -0.69876233788428       -3.24454482606329
C           18.13321879716184       -0.76988254157424       -2.89293938053771
N           12.92278936306340       -0.99988127859455       -1.59992978846223
C           11.64145262270273       -1.02258624046583       -1.31685840217191
C            6.22333004559868       -1.19304765256772       -0.32560647717873
C            4.86126722738202       -1.21491292665729       -0.12032616030403
H            0.48218739829820       -0.08923655873960        0.52660235076621
H            4.27019648816001        2.09261667428791       -0.03594022229561
H            6.70687259314692        2.13238290889915       -0.40495751056037
H           11.02404259532794        2.23346232911799       -1.17158580292542
H           17.44340662519550        2.51681793608331       -2.71133517478381
H           19.82042036172063        2.64660144338059       -3.33903618581444
H           21.11233587134555        0.58440908835650       -3.68110967202053
H           20.03043028718162       -1.60328505301246       -3.39481886285479
H           17.65291949006853       -1.72518067706979       -2.76701762242010
H           11.16991757948896       -1.98742692373846       -1.21823133825007
H            6.77565216092391       -2.11335400550335       -0.40892848995448
H            4.33865299317233       -2.15276113037681       -0.04085787144399
