91
 energy: -19.154757040288 gnorm: 0.000380101203 xtb: 6.5.0 (97a52f5)
C            0.59755309179691       -1.83954185632775        0.71784095170930
C            1.71054098269045       -1.04687115031327        1.42757656061775
C            2.55882639134303       -0.33469146107856        0.35597119629809
C            1.08523993683285        0.02397820065469        2.34036627259332
C            2.55471363429268       -2.00986135986195        2.27640125195667
C            3.91354338507213       -2.20232503172928        2.05470840891497
C            4.64202537108822       -3.07963393585646        2.82625843084546
C            4.03298809769039       -3.79406128191226        3.84536898772186
N            4.80021882677125       -4.72560497320607        4.63737148566377
C            5.68621066643896       -4.43122509540399        5.69042233149333
C            5.91057306566154       -3.11518885394575        6.27854872991308
C            7.05705582017463       -2.89172269067262        7.03970271622869
C            7.29055842630377       -1.67177505828302        7.62582769146615
C            6.37585131152569       -0.62522386618114        7.48988871593839
C            6.61432917756406        0.68107708278867        8.13877568435674
C            7.87934535317044        1.27325526083222        8.11861352782189
C            8.09998840405178        2.48539506967413        8.72458858257703
C            7.06929219154746        3.15084168371532        9.38685801235101
N            7.30215189324686        4.41109467282361       10.02723728508238
C            8.16525013662792        5.37899776788085        9.41245768375697
C            8.99197002634057        6.19183150699067       10.18377071761408
C            9.81405409879141        7.12286563214361        9.58967920756653
C            9.82650624475952        7.25922933090274        8.21510389500590
C            9.01337269811265        6.45922029172757        7.43612145098781
C            8.19068869879504        5.52753884930126        8.02805507415080
C            6.67820660568173        4.70095491467360       11.28695867986513
C            6.24065041988922        5.98806451070297       11.58864288675775
C            5.65145440647992        6.26322794218904       12.80221842409107
C            5.48758980053942        5.25883573818012       13.73635928200687
C            5.91451644168557        3.97646547829293       13.45127174598122
C            6.50366715607413        3.69905440085333       12.23834652942853
C            5.80670440830694        2.56031503839230        9.41281773551083
C            5.58193411288051        1.35418881926383        8.79656646375691
C            5.22368349553168       -0.85207468733733        6.73411207702244
C            4.99971017373765       -2.06821584586584        6.13770494769043
N            6.32973725314293       -5.51613247301274        6.09696551568678
C            5.87790488044105       -6.53691324403605        5.33659937005763
C            6.26628826823261       -7.92373761929291        5.37840065381756
C            7.20861698513686       -8.37239479470147        6.30546674574521
C            7.57104079660282       -9.69258200240196        6.34636968080959
C            6.99810711346843      -10.59312578257829        5.46005830121634
C            6.07056292026338      -10.17092595790222        4.54000998492253
C            5.67523640784821       -8.82786909883199        4.46676378402015
C            4.69017785614314       -8.34720763147457        3.49119019602890
C            4.08648295543516       -9.20321302448188        2.55957259725904
C            3.17029703139012       -8.73845021050685        1.64984806720897
C            2.81942566736685       -7.39690477150684        1.63133193648166
C            3.38846783650753       -6.53145796628451        2.52563360289111
C            4.32268171921104       -6.97904196850895        3.46544376164194
C            4.93195670910431       -6.08499787421676        4.41461795055638
C            2.67881218051658       -3.60885370607291        4.07700106008492
C            1.95501328792414       -2.72990062611293        3.30271318080684
H           -0.00873170251494       -1.18544853457712        0.09167604359859
H           -0.06480099855295       -2.32163625145104        1.43562426666427
H            1.02367940751010       -2.61553628665805        0.08232377970220
H            1.94563732429087        0.34882453243238       -0.23097167069080
H            3.00344862041660       -1.05177684386151       -0.33359409573709
H            3.35763944102137        0.24938389869895        0.81219574814321
H            0.49359816310008        0.73271217344886        1.76137953338165
H            1.86010164948624        0.58167814570573        2.86573915362789
H            0.43054343388887       -0.42365502232876        3.08672106525052
H            4.41190326513276       -1.66272765289863        1.26934015415801
H            5.69332745554709       -3.22674278356024        2.64944174680007
H            7.75760783887011       -3.69960610479702        7.16180372090510
H            8.17633943151701       -1.51797260112658        8.21764833007373
H            8.68253129521675        0.77189368527424        7.60667459709475
H            9.07816980393262        2.93335893205816        8.70714919380634
H            8.98472058933415        6.07450898592280       11.25331982267127
H           10.44941352234296        7.74577174029810       10.19795309467262
H           10.46985855626564        7.98889788779298        7.75103744473619
H            9.02155885280707        6.56550964889730        6.36358577714845
H            7.54787473824658        4.90777048085711        7.42761135198659
H            6.36321836100440        6.76421340690764       10.85355129023793
H            5.31729540180510        7.26373647473060       13.02361495535085
H            5.02742610697385        5.47551816379554       14.68661097284615
H            5.78837889919324        3.19239453610458       14.18000580244205
H            6.84772709143890        2.70449806259389       12.01397677766630
H            5.00595886533285        3.07247133153285        9.91714610437754
H            4.60450108737241        0.90477169888958        8.83122476497162
H            4.51325068771235       -0.05259938908133        6.61240084264087
H            4.10622440051500       -2.22498086057243        5.56329578323301
H            7.64193039257930       -7.66061484154573        6.98655409785397
H            8.29856559496146      -10.03192369453822        7.06553285013920
H            7.28451658250747      -11.63171472470411        5.49594260699155
H            5.64250505927357      -10.89079175537711        3.86674623517525
H            4.34251278401015      -10.24678869302961        2.55031889166828
H            2.72055180382925       -9.41787701800077        0.94408037332872
H            2.10005514037254       -7.03784814122278        0.91341727610016
H            3.11943182014188       -5.49215705466615        2.51050009825268
H            2.20629508958768       -4.16582287957273        4.86744918542382
H            0.90418932328415       -2.59977894413325        3.49459201909804
