31
 energy: -6.523443259517 gnorm: 0.000915722913 xtb: 6.5.0 (97a52f5)
C            3.04295378597603       -1.60431010433529       -0.44462469956460
C            2.91810065446786       -1.32143614715678        0.90744467701755
C            1.92749176176200       -0.47551088016626        1.36271786690146
C            1.05620622104754        0.08730378574831        0.43992417566078
C            1.18293288798070       -0.19923626440925       -0.92662801856932
C            2.17782248186255       -1.04661566254497       -1.36998736470947
C            0.10544586612535        0.54366718267212       -1.68033444136031
C           -0.63746812405616        1.27878446726148       -0.59100865309274
C           -0.06702859427688        1.00097540269110        0.62915360675351
S           -0.88562520015321        1.83943636172693        1.92440573549056
C           -1.99768258130895        2.57135103567802        0.79410128131332
C           -1.73638217934210        2.17591777044211       -0.49681425686550
C           -2.72106829288819        2.82524074003866       -1.43868299759095
C           -3.58303846063399        3.65890480970260       -0.52054273541378
C           -4.64921268041446        4.49268024207888       -0.78971331038213
C           -5.26480946388567        5.15111644098840        0.26064431710621
C           -4.82288589438953        4.98140990629195        1.56432031927090
C           -3.75698213925029        4.15135206413237        1.84569599644121
C           -3.13427471622508        3.48837870290348        0.79683540976012
H            3.82368876562155       -2.26718055080817       -0.78005356677810
H            3.60182675716479       -1.76684138068915        1.61141274333389
H            1.81900459985647       -0.24725657601402        2.40839002354870
H            2.26930480796870       -1.26136471451954       -2.42042198507256
H           -0.55558037954527       -0.14750281507947       -2.21364799805386
H            0.53682477296502        1.24178834068962       -2.40536207551922
H           -3.31570856334160        2.07408007952455       -1.96900621999131
H           -2.20872122788091        3.44909500293028       -2.17853642710423
H           -4.98744956579166        4.62010753242560       -1.80321743271155
H           -6.09768600728541        5.80559592075402        0.06201671302578
H           -5.31549442340153        5.50510294283887        2.36716510317969
H           -3.40235486872791        4.01290636420624        2.85185421397525
