88
 energy: -19.693951175376 gnorm: 0.000565075532 xtb: 6.5.0 (97a52f5)
C            2.40176486406559        1.40552080420940        1.66615518607032
C            2.88521356046941        0.10118855382965        1.80304398292540
C            2.15297528345832       -0.97454071521092        1.36469619225215
C            0.90959153043005       -0.74409905347681        0.77792821411792
C            0.42586180786334        0.56697979134951        0.63272235502267
C            1.18077952972041        1.65021153753206        1.08504400384816
C           -0.85809936569250        0.47995494082656       -0.02264035046163
C           -1.78849501979173        1.44864704835648       -0.40172620298854
C           -2.95381600248860        1.04188489313075       -1.00570581710384
C           -3.20977816947056       -0.31265979580441       -1.23705081392660
C           -2.30324358248858       -1.27699479607725       -0.87098169125903
C           -1.11350013236606       -0.88098259298103       -0.26191221672035
N           -0.03157737001090       -1.64006132476462        0.22996490272224
C            0.09438718691992       -3.07055540239764        0.18466626015572
C            0.33863254164768       -3.79406368742155        1.34733555429508
C            0.46902177457564       -5.16110028812367        1.30684499383404
C            0.36641952119465       -5.84744372883214        0.09807187810894
C            0.52204738027706       -7.30104092474583        0.01681133286960
C            0.43930704328539       -8.18678513871265        1.07520021955948
C            0.65665178043714       -9.46868937541450        0.54991698880627
C            0.69182815476158      -10.74664114061968        1.13891445061823
C            0.95259984066925      -11.82531466017771        0.34730644411002
C            1.19104477087297      -11.69059387831158       -1.04561883351310
C            1.51900923200404      -12.88238571137479       -1.85681539410122
C            0.81207308166604      -14.09786547707051       -1.66181926162068
C            1.12193106743114      -15.22833718867721       -2.35842070551856
C            2.17506260148787      -15.18117996227729       -3.29174993780052
C            2.74887800222898      -16.14912744269155       -4.12948957249362
C            3.77617010406352      -15.52726527529066       -4.81544001021903
C            4.67874676475206      -16.15060772353725       -5.78377157187648
C            5.66734829012707      -15.37491870969994       -6.38032323514827
C            6.55357666252402      -15.92710125238817       -7.27312254815461
C            6.48035109741419      -17.27792734689063       -7.59646339462003
N            7.42313457410225      -17.86349885540109       -8.50755686717880
C            7.77845249136641      -17.36029488053098       -9.77667320146036
C            7.31555662571612      -16.25008448339699      -10.48188904402400
C            7.82971885677697      -15.99869634456689      -11.73013523682085
C            8.79640641759643      -16.83635791469304      -12.29339485125287
C            9.25799826541957      -17.93884361547425      -11.61567023376676
C            8.74414322538233      -18.20742334942397      -10.34621163501051
C            8.99946463335784      -19.26589448372563       -9.39822917800703
C            9.86222731884297      -20.36262364140005       -9.42386048113350
C            9.89440153483565      -21.20105830712325       -8.33578056311601
C            9.08511460110855      -20.96399989214519       -7.22123961515349
C            8.23060110100572      -19.88980585802636       -7.18251240311787
C            8.17834704040654      -19.03366428243765       -8.28191461005652
C            5.48830204641402      -18.05508726519382       -7.00697740774641
C            4.60075474110982      -17.50213170379475       -6.11538275134569
O            3.86788635766884      -14.19839584033859       -4.45051670336725
C            2.88697204931860      -13.97997219391335       -3.50800870429780
C            2.54086995117319      -12.83262121741215       -2.78538961246007
C            1.14694834496580      -10.43664117052059       -1.62439946560140
C            0.87530890131013       -9.31127204784103       -0.83734836273080
O            0.77894027930897       -7.97497611421632       -1.16121146632276
C            0.12901912710226       -5.12017556041659       -1.06395291509223
C           -0.01162011691142       -3.75394514378924       -1.02226152995656
H            2.99804232113741        2.23098630572625        2.01856478552708
H            3.84896922615038       -0.06149993153099        2.25680472709220
H            2.52132910451505       -1.98057792200127        1.45650843554668
H            0.80412709534606        2.65128694819843        0.97125713407600
H           -1.58607653107038        2.48853119776118       -0.21554203773693
H           -3.68335468267573        1.77707767191481       -1.30305500251853
H           -4.13440074249914       -0.60381004455952       -1.70767371435891
H           -2.49588739807371       -2.32182154757025       -1.03669394347113
H            0.41532346285871       -3.26404778384110        2.28056895911755
H            0.66620919600429       -5.71016266811505        2.21073738399230
H            0.23943720732097       -7.94913317640656        2.10423057039003
H            0.52203660065840      -10.85231528733580        2.19583633403561
H            1.00384738041776      -12.80765788938928        0.78350643189932
H            0.00752370832570      -14.11394515637565       -0.94740121575452
H            0.58562121663995      -16.14809750962267       -2.20513519534672
H            2.44595088428525      -17.17743536212337       -4.20606668072877
H            5.72858726926472      -14.33229174180795       -6.11930233751596
H            7.32946295122013      -15.32753232869437       -7.71574763826377
H            6.56282420719200      -15.61692489468225      -10.04768851339527
H            7.48141097376278      -15.14370704203535      -12.28589093383442
H            9.18212130255047      -16.61518482241724      -13.27494868506438
H            9.99803537829316      -18.59155607885740      -12.04381845942815
H           10.48660351511825      -20.53396335262889      -10.28280188553373
H           10.55594680726443      -22.05164889087033       -8.33882474858434
H            9.13533412401726      -21.63369668854263       -6.37850283060486
H            7.61511206149479      -19.69400039136910       -6.32298102861852
H            5.42155954115782      -19.09625769687827       -7.26987457107406
H            3.84054168092656      -18.11505861241875       -5.66449825598248
H            3.10016110641916      -11.92909918995209       -2.93804366078344
H            1.31609969177803      -10.31169096044879       -2.67713742949836
H            0.06181677261639       -5.65082029954464       -1.99817886964657
H           -0.18728763182597       -3.19259566405978       -1.92313168666226
