108
 energy: -24.549697503197 gnorm: 0.000968133127 xtb: 6.5.0 (97a52f5)
C            1.63036026004062        0.77903165914060        2.75029003094287
C            1.75901390279585       -0.59157979793844        2.99452067224110
C            1.35173573952126       -1.51270587771960        2.06261704856854
C            0.80882522311384       -1.06103320110686        0.86197398873516
C            0.67334478614005        0.31415738394670        0.61725358241935
C            1.08949815796020        1.24157925885192        1.57417071328871
C            0.06066513743771        0.45500594685155       -0.68172183614995
C           -0.34163199781874        1.57813264192196       -1.40588511148326
C           -0.95900397339000        1.39370167787096       -2.61870677298647
C           -1.19244684484380        0.10923836051973       -3.11641027656815
C           -0.80141482498038       -1.00483689953331       -2.41543658043067
C           -0.15321136237172       -0.83912147771794       -1.19078666781529
N            0.33741848227752       -1.77618471247254       -0.25414281232168
C            0.38730824635457       -3.20443585364542       -0.33465442184603
C            0.54513679739662       -3.82501765354753       -1.56610911674976
C            0.56580488527503       -5.18840002884523       -1.63918274793489
C            0.44885169651596       -5.92530265693254       -0.46974296261359
C            0.32715000898327       -7.39070977339602       -0.50487548499760
C            1.10858316547258       -8.14801135960207       -1.35918571423231
C            0.97661968682089       -9.49996481965831       -1.32219704336991
C            0.05675096405526      -10.04369491550340       -0.44356528762187
C           -0.16133954221732      -11.49694820007750       -0.38167602237291
C            0.90362642788727      -12.38462907917268       -0.42385416315869
C            0.66187843335701      -13.71516515712571       -0.23475648197965
C           -0.63188939510172      -14.15062806516488        0.01717860928825
N           -0.88524448093782      -15.53879266719141        0.25720653193713
C           -2.09673241664788      -16.16237805939572       -0.09338073675673
C           -3.25034235468045      -15.63759395724115       -0.67137387798147
C           -4.30533953239690      -16.47711523536422       -0.92641175592552
C           -4.23103441446403      -17.83699192765986       -0.61022487739360
C           -3.10261162381227      -18.36981167102665       -0.03363379035231
C           -2.02114738189635      -17.52645779848556        0.22751371163660
C           -0.72957985178505      -17.74865991270569        0.83165330097181
C           -0.13884366427761      -18.89011488460206        1.37555153093258
C            1.10660153301607      -18.78045610635613        1.94382141277666
C            1.76824941359857      -17.55074799414733        1.98890263256860
C            1.20052615753736      -16.41999127528823        1.45554287940450
C           -0.05537093090964      -16.51391830084434        0.85434574618388
N           -1.67876366588309      -13.32581263102963        0.01500956059380
C           -1.45215848073335      -12.03210627430931       -0.20471964662463
N           -2.60292154908367      -11.17563720902740       -0.24442684570799
C           -2.92334864478634      -10.14381420053848       -1.15389264110727
C           -2.28151618167634       -9.70706740790165       -2.31204107641359
C           -2.79922039592734       -8.63350514611086       -2.99245587095753
C           -3.95819351338076       -7.99155373991160       -2.54871328200222
C           -4.61801724538790       -8.42299745779744       -1.42363063004281
C           -4.10145678015781       -9.51195872760473       -0.72029644561607
C           -4.54899065530378      -10.20300455964289        0.46533933997661
C           -5.64584844105344      -10.02461497482859        1.30974862842165
C           -5.79620558741157      -10.87047747061664        2.38291213553916
C           -4.87526125302487      -11.89323520079103        2.63030402514506
C           -3.79218673946806      -12.07953982481438        1.80823890855602
C           -3.62548281768415      -11.22891093636846        0.71890968301554
N           -0.66794177760474       -9.25881863443270        0.36313821972170
N           -0.55120755534569       -7.97437206249539        0.31954430340860
C            0.37268477741433       -5.21628692991945        0.74494842039078
N            0.33128453490714       -5.91914648648061        1.99534596774686
C           -0.58217160632804       -5.59856657003618        3.01490449916005
C           -1.53485108302542       -4.58578667084657        3.08418346171779
C           -2.33197532175319       -4.50526853455629        4.19842520096243
C           -2.19299287394281       -5.41942910117283        5.24736671641966
C           -1.25293993811096       -6.42112499261352        5.19555517871165
C           -0.43524836147533       -6.51411392649915        4.06826307536923
C            0.63253288028639       -7.41386669013040        3.70300739191561
C            1.19992748065285       -8.50993439269601        4.35417977569336
C            2.23470881321538       -9.17630667825799        3.74397955712486
C            2.72181008592979       -8.76271311584162        2.50147154643265
C            2.17467937349226       -7.68528472860810        1.85078873867207
C            1.10737823878681       -7.01117998505024        2.44289515187330
N            0.31777465903147       -3.88718380082870        0.80772661778335
H            1.95694522631076        1.48259108117261        3.49825477517198
H            2.17873599356784       -0.92832482814323        3.92806723309591
H            1.41844328033589       -2.57003684237806        2.24100365408372
H            0.98257582917146        2.29452232182265        1.38218767649390
H           -0.17204569096126        2.56234192197308       -1.00633500890034
H           -1.27697948057049        2.25007813235528       -3.19027972557142
H           -1.69438751564092       -0.00772475035761       -4.06284180372532
H           -1.01795029652844       -1.99156383982815       -2.78185049550268
H            0.66756832052644       -3.22717587288744       -2.45084969931027
H            0.63665701501375       -5.69117515007123       -2.58821461007330
H            1.81554670360247       -7.67214011512874       -2.01654164317428
H            1.55076944829794      -10.13670076953466       -1.97279922432796
H            1.90521201413802      -12.01879488564387       -0.57025333866495
H            1.46141929402286      -14.43089468835071       -0.29511473141666
H           -3.29709909585282      -14.58507246107053       -0.88173539723651
H           -5.20455438625685      -16.08269353305012       -1.37016558976484
H           -5.07420702152999      -18.47514768861128       -0.81741197335795
H           -3.04159003717656      -19.41357505801360        0.21899200673270
H           -0.66369398239461      -19.82872216156764        1.35089082500255
H            1.57600219870194      -19.65136199603851        2.37085595492869
H            2.73701568141172      -17.48860149473707        2.45686579513296
H            1.69406364568368      -15.46821204766098        1.52800079612154
H           -1.39113722713929      -10.20734181314916       -2.64775728228840
H           -2.30246890720147       -8.27728777847601       -3.87991938952988
H           -4.34003453371778       -7.14741797257982       -3.09893810834804
H           -5.51336605233384       -7.93770181690163       -1.07741401915887
H           -6.35034098188524       -9.23576262497250        1.11367257697688
H           -6.63757770866567      -10.74504829154943        3.04431382487735
H           -5.01944554501701      -12.54483127524698        3.47631196879350
H           -3.08122647134878      -12.86925597285381        1.97012058743983
H           -1.61167409641937       -3.88258378095814        2.27495941958738
H           -3.07281021307507       -3.72584718660109        4.26743627562378
H           -2.83179609974612       -5.33460848869259        6.11097540519933
H           -1.13874186223496       -7.12604006885621        5.99997231765352
H            0.82148682565896       -8.81866963396956        5.31256600561196
H            2.67901833044378      -10.02908031480435        4.23028017302472
H            3.53620428867790       -9.30120826053996        2.04536876721884
H            2.54455822165001       -7.36059854227872        0.89506848684638
