62
 energy: -13.756056975705 gnorm: 0.000400345858 xtb: 6.5.0 (97a52f5)
C            3.02554715708608        1.24286253266376        0.54380972180231
C            3.45356823169119       -0.08645549074094        0.47987804922659
C            2.55707621207964       -1.11114011346096        0.29976331820485
C            1.20212728436252       -0.80363802598235        0.18310563866882
C            0.77172001882913        0.53287501457396        0.24069563470479
C            1.69464164431483        1.56376489595469        0.42525003480358
C           -0.66257980963892        0.52901152746264        0.07496349884645
C           -1.61054793032122        1.55358920838493        0.06322860734607
C           -2.93464398891354        1.22393745470681       -0.09920788730802
C           -3.33132045466281       -0.10833721380670       -0.24790390478840
C           -2.40974067849863       -1.12660511755290       -0.24045524558815
C           -1.06113261944994       -0.80934241511636       -0.08336310952649
N            0.08066192801488       -1.63546524894163       -0.01818990829188
C            0.09697245179730       -3.06915616472612       -0.11246467238532
C            0.71544014971040       -3.83528136431771        0.86968176595675
C            0.72677998253029       -5.20655704903952        0.78465148844669
C            0.12540656681848       -5.86349689950526       -0.29062948065590
C            0.13641260177215       -7.33931961292098       -0.37908176981954
C            0.35664195499589       -7.98590859590440       -1.59689505836623
C            0.37496839035056       -9.35794042665700       -1.67393537315512
C            0.16644670943908      -10.13483191427598       -0.53924134079915
N            0.18839248096733      -11.56931806754735       -0.61807106900710
C           -0.80539269738422      -12.44397703349782       -0.13052071785256
C           -2.02776984144306      -12.18304213715690        0.48743895946926
C           -2.82226595405023      -13.24186555800285        0.85326307086923
C           -2.42264161113704      -14.55974875020814        0.61277858737872
C           -1.22387268047673      -14.83446745386497       -0.00022120684438
C           -0.40623624234797      -13.76832285325457       -0.37885036435542
C            0.87967476177611      -13.71320179845069       -1.03303031332116
C            1.74773369466804      -14.70842150544465       -1.48530303515517
C            2.93841383449320      -14.33273973574717       -2.05924696533836
C            3.28086249117936      -12.98346113945891       -2.18784701173451
C            2.43633763558998      -11.99352697210851       -1.74848732394769
C            1.22069139558538      -12.35674987263079       -1.17018259173494
C           -0.05906329933273       -9.49722402167106        0.67596066777775
C           -0.07032051073502       -8.12565018399555        0.75597387300624
C           -0.48884608603503       -5.08797303219425       -1.27597197975558
C           -0.50584374295371       -3.71674566955703       -1.18568410781416
H            3.75120331741467        2.02682449354128        0.68575432879186
H            4.50391876864348       -0.30950713749796        0.57175876055294
H            2.87911889404498       -2.13532742396897        0.24012296249909
H            1.35704874378579        2.58418282134983        0.46995183293976
H           -1.29719945849432        2.57558874756945        0.18388801240454
H           -3.67952599953316        2.00265512058050       -0.10830449776930
H           -4.37725866303983       -0.33895710272783       -0.36726889562692
H           -2.70772045045194       -2.15454547640572       -0.34411144421681
H            1.17441109573744       -3.33487323578470        1.70439718200585
H            1.21532199897707       -5.78911849033798        1.54645803332019
H            0.52815032843099       -7.39453244118041       -2.47964675008295
H            0.53998052628552       -9.85108563336185       -2.61595941135668
H           -2.33240727962012      -11.16637161001804        0.66004157900095
H           -3.76973358443755      -13.05491451208871        1.33157348316027
H           -3.06621201962001      -15.37124159423073        0.91047340840283
H           -0.91023487494235      -15.84541453143305       -0.19215279854608
H            1.47921117358084      -15.74440407048242       -1.37637097597689
H            3.62082642049662      -15.08857589917887       -2.41188946313943
H            4.22395659190035      -12.71723419553215       -2.63630804231025
H            2.69720717622125      -10.95391618755666       -1.83418029356487
H           -0.21089044154443      -10.09787733765945        1.55571096870413
H           -0.25236149692263       -7.64292924958348        1.70055551960892
H           -0.96621149591457       -5.57908986098019       -2.10621938765775
H           -0.97679870166480       -3.12364438901565       -1.95005259011000
