79
 energy: -17.906315932063 gnorm: 0.000653718087 xtb: 6.5.0 (97a52f5)
C            1.96577535910362        1.01649998133673        2.10126358914588
C            2.26913046370131       -0.33212445086184        2.31211646919082
C            1.64731171421566       -1.31585074375806        1.58466526173330
C            0.70774060680017       -0.94752789135129        0.62516489948251
C            0.39712484684139        0.40518089912278        0.41445530864132
C            1.03507058296599        1.39560649665269        1.16342132957338
C           -0.61832665361284        0.45293043560298       -0.61047104282403
C           -1.32580519577784        1.51361807757263       -1.17838759266119
C           -2.29249245569974        1.23572550117710       -2.11381528187355
C           -2.57281186592148       -0.08168729217299       -2.48632473234317
C           -1.88479771006125       -1.13544411211590       -1.93724954298360
C           -0.88724728536453       -0.87198724538970       -0.99858149928679
N           -0.05090103609085       -1.73530744908787       -0.25861594015366
C            0.01567672567113       -3.16326532386840       -0.30645147157328
C           -0.12579213004104       -3.82532548176995       -1.50728345433346
C           -0.12835187405582       -5.18510790880319       -1.49328644144361
C            0.00458123757040       -5.82331636567918       -0.27376553529845
C           -0.14236752276727       -7.28485987310162       -0.17261428565597
C            0.45199571016260       -8.13121962183739       -1.09576882205477
C            0.34826791738326       -9.48118711726102       -0.91733350264796
C           -0.32592690044313       -9.97989882298572        0.18836960839003
N           -0.44050657214063      -11.39459374707536        0.37712940488268
C           -1.55213591795771      -11.98675926969296        1.00431337702096
C           -2.67471702293331      -11.40737059415078        1.59141997237133
C           -3.64246749638527      -12.22337321397286        2.12075381411930
C           -3.50933401201459      -13.61446611698647        2.07628011401292
C           -2.40564250838350      -14.20265643709001        1.50586874070719
C           -1.41467290567181      -13.38273659146101        0.96279439133019
C           -0.15557637320935      -13.66489158019939        0.31759030956959
C            0.50117668911708      -14.86483690049259        0.04069605255280
C            1.73829088152410      -14.81692863469261       -0.55345090879384
C            2.33645664672875      -13.59348431076752       -0.86556545777962
C            1.70146241712757      -12.40510968256985       -0.60102075758708
C            0.43377755434299      -12.43194487009422       -0.01786417601111
N           -0.93478078419501       -9.18898716726321        1.07183762726217
C           -0.86919716410541       -7.87278124078156        0.88068164014660
N           -1.57823448478005       -7.05011217977726        1.81967688496310
C           -2.41930460869604       -5.93949030185314        1.58623421392670
C           -2.88392743755522       -5.36937934512456        0.40139525327352
C           -3.65827672388741       -4.23819291635383        0.46758461515829
C           -3.99852893614900       -3.67063570338652        1.69809667601353
C           -3.57684136553448       -4.23590488297116        2.87703956532923
C           -2.78431485419473       -5.38352122097796        2.82447878557823
C           -2.20303133602924       -6.21018402427776        3.85487582005417
C           -2.24595219317907       -6.15788283279710        5.24908765389503
C           -1.58213349131806       -7.12485631082398        5.96597723610704
C           -0.87854381797926       -8.14634627087849        5.32021635829637
C           -0.82814231036895       -8.20964244301829        3.95016804152699
C           -1.49140571717379       -7.23415545021473        3.21074371372050
N            0.22393140540963       -5.12075157858286        0.84707873417097
N            0.22832233961472       -3.82885544663102        0.83233363540424
H            2.46721810085538        1.76938631703443        2.68673892939977
H            2.99731802589330       -0.60237630175461        3.05898657267913
H            1.85197645447696       -2.35847717402826        1.74582948635090
H            0.79251448583019        2.43076437802942        1.00013873912825
H           -1.11331784698263        2.52333257977751       -0.87444541711560
H           -2.84901666896699        2.04319030252193       -2.56048031369697
H           -3.34594176887308       -0.27268829798951       -3.21239917732371
H           -2.12107482185533       -2.15052015644157       -2.19968251998909
H           -0.22819476853556       -3.27215531692002       -2.42402691718860
H           -0.28260618103764       -5.75464738211861       -2.39349440704721
H            1.00196440118678       -7.72234033680380       -1.92565894684180
H            0.76013046986760      -10.16138911885340       -1.64024656946588
H           -2.74739796470794      -10.33648324904087        1.63555925836812
H           -4.51359318034549      -11.78670311967935        2.58058033200650
H           -4.28290088222049      -14.23405017721444        2.49913768091654
H           -2.29469120185821      -15.27200219016239        1.47175749939085
H            0.03895214168658      -15.80111896906451        0.29907390507864
H            2.25964594281627      -15.73412624659213       -0.77281274081218
H            3.31574898220458      -13.58358685739365       -1.31530295673066
H            2.18158218823144      -11.46574471778778       -0.80545806490278
H           -2.61995527939750       -5.81340423477463       -0.54139147347547
H           -4.00297445230219       -3.77619120647373       -0.44286205757600
H           -4.60195435104097       -2.77821168072635        1.72128764959512
H           -3.83982727764627       -3.80949213122493        3.82891665105105
H           -2.79092503402488       -5.37062229294136        5.73924259024028
H           -1.60572331048333       -7.09770273419307        7.04290214142453
H           -0.37140407319373       -8.89485662547038        5.90644207822172
H           -0.30750656421681       -8.99527348598343        3.43342939608595
