88
 energy: -19.691738242883 gnorm: 0.000655991837 xtb: 6.5.0 (97a52f5)
C            3.32048482988889        1.10889245533235        0.32888401230345
C            3.67430659177662       -0.24347293650462        0.34686451545381
C            2.72433039839488       -1.22580384141596        0.21418663382834
C            1.38985908730576       -0.85125515344820        0.06223689713803
C            1.03423765607989        0.50818423656121        0.03683085172143
C            2.01119545403714        1.49536820669737        0.17412909507020
C           -0.39623813268947        0.57415943057311       -0.14521170524141
C           -1.28537276773536        1.64636370550750       -0.23412920589260
C           -2.62343737277393        1.38058191604079       -0.39755279397022
C           -3.09205899092421        0.06561601691662       -0.47173581897829
C           -2.22951149705962       -0.99910852059502       -0.38686430228746
C           -0.86730004555323       -0.74717372556370       -0.22701612125264
N            0.22543302635825       -1.62789656069082       -0.09982578861951
C            0.15296551459901       -3.06353659435684       -0.11167261087327
C            0.71978734413350       -3.80571154688347        0.95036739357372
C            0.63534117581359       -5.16591066218493        0.99280344955575
C           -0.03506936136244       -5.83497442951947       -0.04986941268892
C           -0.31849849573563       -7.18957978962704       -0.28459963275973
C           -1.03267001397675       -7.25013783898375       -1.46626657577045
C           -1.57641136439818       -8.45655552649178       -2.09092940224042
C           -2.11935749988294       -8.37226393368070       -3.36789476073021
C           -2.68650248203265       -9.47072025849474       -3.96837682042318
C           -2.74114299873351      -10.70038386462379       -3.30932748225761
C           -3.41049072899769      -11.86514507888577       -3.92476390492459
C           -4.51571976745173      -11.69364773503682       -4.76050315752835
C           -5.17067850609995      -12.77336369864843       -5.30240353413208
C           -4.74852959459555      -14.07194308135508       -5.02777071196622
C           -5.45105077055879      -15.24411790430626       -5.55079400210288
C           -6.46575825166989      -15.23286787868490       -6.48900995729682
C           -6.86645047279252      -16.56507384850799       -6.67155609768090
C           -7.85745853288209      -17.16083912277880       -7.47558197423666
C           -8.02709313458887      -18.51187303945656       -7.41098763311099
C           -7.23287655228123      -19.31594510610487       -6.56093641625121
N           -7.46734142875316      -20.73265096412520       -6.49650019495998
C           -7.54304314512119      -21.61492601147668       -7.59257921241896
C           -7.37660925871173      -21.39118922802336       -8.95881079157219
C           -7.50352932549305      -22.45172602219379       -9.82142345492602
C           -7.79168588742085      -23.73525216008872       -9.34832846784604
C           -7.95307241143504      -23.97423750712085       -8.00503236389789
C           -7.82581765577793      -22.90624131982168       -7.11558341149086
C           -7.92969608257806      -22.81931118158926       -5.67842725406148
C           -8.20314907607389      -23.77150055178644       -4.69526534485170
C           -8.25010826852558      -23.36822001300942       -3.38270133292442
C           -8.03218256756587      -22.03266385116167       -3.03196727565805
C           -7.76205674523283      -21.08488188942714       -3.98776876233570
C           -7.70514893833233      -21.47804587959484       -5.32445125325462
C           -6.25719180124146      -18.74014083242608       -5.77849257500120
C           -6.06077443827101      -17.35424466621144       -5.81995272726245
O           -5.18515394145316      -16.53720071150485       -5.13903690742618
C           -3.64340298528085      -14.24854565028144       -4.20262234309674
C           -2.98449294448844      -13.16890296537369       -3.66354364231387
C           -2.18343453538270      -10.78288385077513       -2.03172548513036
C           -1.61126958290318       -9.68470797320015       -1.43444342316099
O           -1.20155243190355       -5.98472691123755       -1.99731700867601
C           -0.59914204533648       -5.10819401554749       -1.12271988816523
C           -0.49364394719885       -3.71221904641802       -1.13932411122901
H            4.08725427019967        1.85845461283861        0.43568659218642
H            4.70967638052317       -0.51793880181919        0.46497421450857
H            2.98928157157911       -2.26785573920719        0.21790303534365
H            1.73080135798601        2.53368757757355        0.15582233884909
H           -0.91718233021287        2.65514533091885       -0.17199289913221
H           -3.32345934072200        2.19690952993628       -0.46676514888075
H           -4.14736146073750       -0.11403708166059       -0.59580356779050
H           -2.58321559888628       -2.01337500589609       -0.43430688653771
H            1.20868259924227       -3.26766772314752        1.74330745975530
H            1.05773073375844       -5.73046300273197        1.80510979723015
H           -0.03810657394337       -8.01302732785466        0.34653507847653
H           -2.09471880508611       -7.42226966174248       -3.87364332802923
H           -3.09109885523965       -9.38737171878351       -4.96188125002343
H           -4.87553319776764      -10.69857528274191       -4.95643666214177
H           -6.03091072367286      -12.61888106207817       -5.92963878708258
H           -6.88155999283275      -14.37510849450893       -6.98537803626429
H           -8.46670984410007      -16.54725471297303       -8.11528539556039
H           -8.78887109824014      -18.99148246463490       -8.00000449514062
H           -7.14622389297972      -20.40281770347531       -9.31392762411976
H           -7.37786236142641      -22.29366745406691      -10.87995584004147
H           -7.88649210194885      -24.54883361608016      -10.04852101245777
H           -8.17262610137850      -24.95919120918791       -7.63258396707265
H           -8.37445869550479      -24.79622204015886       -4.97394737037056
H           -8.46085852413613      -24.09059682185379       -2.61137965838500
H           -8.07896785739972      -21.74322910255913       -1.99499000877175
H           -7.60283252197404      -20.05405862223233       -3.72683355084711
H           -5.64559309236440      -19.34595834626535       -5.13788637831649
H           -3.31890562248812      -15.25231295197526       -3.98853857770812
H           -2.12431659047548      -13.32570978135130       -3.03636910088875
H           -2.23324863135195      -11.71579611551000       -1.49743772534414
H           -1.20545158105896       -9.76373448023446       -0.44126160935795
H           -0.91845581649642       -3.15547181497367       -1.95238542988940
