60
 energy: -13.515319317219 gnorm: 0.000393692667 xtb: 6.5.0 (97a52f5)
C            2.94418541662282        1.13303314457895       -0.31914604190009
C            3.41268333854607       -0.16402794910294       -0.08796835070111
C            2.54862039132528       -1.22940190905001       -0.03161665901026
C            1.18506030910317       -0.99623740534379       -0.20811635142253
C            0.71372146012130        0.30621613609253       -0.44756928761495
C            1.60496754067856        1.37955725466084       -0.50064622718155
C           -0.71819928565666        0.22154264510993       -0.60599243182975
C           -1.69728624766061        1.18543315363231       -0.85417164633882
C           -3.00757363009144        0.78393449515801       -0.94985964573198
C           -3.36133360540556       -0.56064078762387       -0.80096307721024
C           -2.41021978391055       -1.51984692840758       -0.55615546078644
C           -1.07454192334223       -1.13023011190429       -0.46031884103813
N            0.09037150799530       -1.88224013857791       -0.21317520879931
C            0.14582262065344       -3.30435346886819       -0.00565151302596
C            0.76993589827334       -3.82952320593595        1.13218569007330
C            0.81793216701196       -5.18518536457670        1.35175973377319
C            0.23598828665476       -6.04413624636375        0.43124511915686
S            0.14484593691901       -7.80152369282696        0.47117525043837
C           -0.74356907542871       -7.86883842738175       -1.04668992694813
C           -1.21526424433850       -8.98102222566073       -1.72813268401703
C           -1.90011904181962       -8.80958131574009       -2.90722558825803
C           -2.13028325122123       -7.53127468563409       -3.42981621552849
N           -2.86342152153812       -7.35348382278415       -4.64984434648754
C           -4.01520563477318       -8.04827012213218       -5.06729710237726
C           -4.77054611788427       -9.04279305898724       -4.44450760272247
C           -5.87678207937503       -9.53572354428966       -5.09061861067502
C           -6.25204438238399       -9.05387328959795       -6.34833378755923
C           -5.52843918797936       -8.06642569598070       -6.97038823364424
C           -4.40181118201765       -7.55467292208135       -6.32396082138514
C           -3.46916398261982       -6.51437551003464       -6.67838981088224
C           -3.36133753848849       -5.67882255364025       -7.78270539031037
C           -2.33193183366026       -4.78035737816403       -7.76159032888139
C           -1.46982736275515       -4.74033698935688       -6.66765108485356
N           -1.53931657303085       -5.50872496162530       -5.60374032542065
C           -2.54317198946207       -6.39655639616031       -5.62997669854537
C           -1.63912584858900       -6.42592570170940       -2.76066236713968
C           -0.95094904627168       -6.58679535788724       -1.55927964847336
C           -0.38857041556343       -5.53851476417696       -0.71081997038396
C           -0.42976202757338       -4.16147362589507       -0.92580066978579
H            3.64545947580113        1.95022070896966       -0.35819700681296
H            4.46915745588320       -0.32907732035366        0.04584604180108
H            2.90148027193493       -2.23103035690658        0.13669772113260
H            1.23688375295469        2.37372380522461       -0.68289295823964
H           -1.41729934578415        2.21813147707980       -0.96457181460185
H           -3.77540972814945        1.51535354325137       -1.14111961101627
H           -4.39717902991085       -0.84727994009877       -0.87896682437750
H           -2.67484143597195       -2.55474137483086       -0.43327753178199
H            1.20295066261979       -3.14745067624359        1.84258918783247
H            1.29387995502311       -5.59116993359520        2.22739097079336
H           -1.03618119163532       -9.96303580475805       -1.32609892010370
H           -2.24892211732024       -9.66430670334943       -3.45894615445565
H           -4.49342565584893       -9.39454580046968       -3.46739007123551
H           -6.46895129853287      -10.30324430537440       -4.61998204880069
H           -7.12554742839056       -9.45893517197595       -6.83210233553453
H           -5.81529802877356       -7.68169507477543       -7.93306303804565
H           -4.05581253156745       -5.74618823462804       -8.60150229862676
H           -2.18698838572190       -4.10389326667681       -8.58773370335067
H           -0.66487827058742       -4.02094497842363       -6.67247585743976
H           -1.77711817176086       -5.44845856616134       -3.18194041778455
H           -0.89877701533539       -3.76304929765607       -1.80553716591070
