132
 energy: -27.062549989567 gnorm: 0.021693221867 xtb: 6.5.0 (97a52f5)
C            4.05394409218167       -1.02391124152901       -2.05940393020539
C            3.69796183239653       -2.32891845486120       -2.42015829240850
C            2.64564574832137       -2.96361748695874       -1.81502238821166
C            1.92393692874453       -2.28463194305865       -0.83101738641604
C            2.27085162483949       -0.96339303132849       -0.47913190925096
C            3.35292503127403       -0.33481343607426       -1.10004926161462
C            1.29145009343003       -0.51701604602606        0.48316785022442
C            1.08007763064307        0.69922107581767        1.13723490194759
C           -0.03343341960427        0.83656377356696        1.92970896475753
C           -0.95930445190227       -0.20464072967274        2.06725296167430
C           -0.76869723571945       -1.40360405652648        1.43273158133179
C            0.38099008976763       -1.58066159852666        0.66084703676712
N            0.81954085662287       -2.66747783357278       -0.07829210429965
P           -0.07061087936894       -4.16228974334039       -0.20200885040588
N           -1.59335647299045       -3.69764237584791       -0.82584844566006
C           -3.45091445358764       -3.74615845508578        2.23025330083930
C           -0.48148544528314        1.05592866863293        5.33830927736239
C           -5.98313474515876       -1.89175364924295        1.85839964029464
C           -5.28071345977403       -2.75862766505892        5.88219972757215
C           -4.56999507899764       -6.02095255333751        5.85855553618684
C           -4.24771544327402       -4.56938663133678        3.76461608584558
C           -2.70961774793645       -5.82980998778100       -0.80522384459920
C           -1.82053323404232       -7.64630591367934        3.55692502330123
C           -1.02165110372013       -7.27728049622537        2.64877488701845
C           -5.14093945059058       -4.17771480640515       -1.33534639921364
C           -3.92634799132977       -3.67340248149927       -1.21132748988604
C           -2.72906790832939       -4.39563939037291       -0.93369594631989
N           -0.31179705160078       -4.75204843110298        1.36843124505828
P            0.82468154104632       -5.63096455041859        2.27573135587527
N            2.19226484044489       -4.55175898193690        2.04704790440613
C            2.38635108738624       -3.40544519271538        2.81051507916165
C            1.69902848150348       -2.89368336596008        3.91398811210464
C            2.08145310223559       -1.68608372401566        4.43631285539958
C            3.16042490200453       -0.97675604979567        3.89983170194255
C            3.88553839690556       -1.48416215402098        2.85042684964128
C            3.50722948488093       -2.71404372332448        2.30538542486423
C            4.05010708211553       -3.51613343862387        1.23942002458680
C            5.17978486537971       -3.36820525031800        0.43010669039667
C            5.44952656925463       -4.33026402056067       -0.51135503990773
C            4.60818612921823       -5.43561078148061       -0.66896634861374
C            3.50227880490806       -5.59297644888775        0.12217558522285
C            3.20596566642269       -4.63602590580657        1.09450779935960
N           -0.57553976363086       -3.14398558549566        5.90049409084908
C           -1.73527800559518       -3.39406211083844        5.10267633104839
C           -2.57029049615121       -4.47077630759550        3.48407970034471
C           -4.43432996258861       -4.92755636111176        2.22903247148431
C           -5.76338440092672       -2.55254047789686        2.92208770868861
C           -4.23617518961756       -2.31174817266127        4.99328953081919
C           -2.86050822763117       -2.49701054862072        5.60246530611793
C           -2.33220223655698       -1.86418508598131        6.67496945401970
C           -2.87388538238444       -0.89326402590595        7.58612269840046
C           -2.08312061492553       -0.39837382686442        8.56079127869745
C           -0.71973972290572       -0.81308716344337        8.70100514546126
C           -0.15841638810499       -1.71955503361859        7.86855459120594
C           -0.94098507803361       -2.29109027416365        6.81928560688769
N            1.35255179876121       -6.86245753466902        1.23855970846098
P            0.98212144111867       -6.80702565337423       -0.41200740602898
N            2.08331099896197       -7.81118655384299       -1.30650857420557
C            2.62693939388680       -8.99637260673684       -0.83615513114831
C            2.60576269088119       -9.56467716279504        0.43910997774509
C            3.22510861694497      -10.77165949956161        0.62826136499950
C            3.86878366762867      -11.42421285797650       -0.43085691056185
C            3.89941503830611      -10.88005112299136       -1.69214608899474
C            3.27299834509841       -9.64994118540928       -1.90717202147168
C            3.07526783821501       -8.82642039458426       -3.07904119527237
C            3.44215298969922       -8.96215920517333       -4.42017072961247
C            3.04723266082363       -7.99534904253981       -5.31287522906966
C            2.28792536476154       -6.89206246777762       -4.90259410328775
C            1.91761074853783       -6.73984475106819       -3.59245936020979
C            2.31429022538511       -7.71021498370167       -2.66987865236471
N           -0.66881483707287       -7.46691517771828       -0.63277151265711
C           -1.45957763457263       -6.40821608059395       -0.65731240697138
C           -2.09834280145622       -4.83994483856254        4.92177403203394
C           -1.57252409251291       -3.31089523719275        3.62245055048100
C           -4.38766334250617       -2.89355717768347        3.45263948033941
C           -5.04625254773358       -5.40805434868320        4.74382540983371
C           -5.23703722663270       -8.51396669134882        2.29689131533042
C           -3.68716135630917       -6.71843745324874       -0.96324623200404
C           -4.50854501700025       -7.76763651257061       -1.13327983378380
C           -4.27658047413052       -9.12133536655011       -1.21453752097154
C           -3.12608180756574       -9.97889583714936       -1.14767005588288
C           -1.77119665464994       -9.84294928285259       -0.96334808560743
C           -0.96301770774028       -8.74936334446279       -0.77041377557859
N            0.91167700323143       -5.23852127713864       -1.07581046615425
H            4.89045699152579       -0.55177192959313       -2.54727212855200
H            4.26713037852195       -2.84557927071928       -3.17520847508571
H            2.37305051279860       -3.97271045075755       -2.05921053189521
H            3.61257537020891        0.67347847571121       -0.83047545766244
H            1.77898348318765        1.50615088646929        1.00672590040694
H           -0.20829630710725        1.76803090346238        2.44193779850978
H           -1.83740856561044       -0.05781643895007        2.67419590450379
H           -1.49671038967962       -2.19241182598510        1.47257841705979
H           -0.88136274349550        0.21714007397412        5.79918761432860
H           -6.11977965070089       -1.33468916492139        0.96448201074874
H           -5.57310473984047       -3.53278456208853        6.49385254429121
H           -3.76729166637104       -6.23569000045377        6.47212258570140
H           -2.87316097972666       -7.68415710424132        3.50719783078263
H           -1.27976824517256       -7.01706626025372        1.65592494913597
H           -6.15674188494186       -4.08660522748684       -1.50238766617488
H           -3.80869494804770       -2.60343821838355       -1.30978029963858
H            0.91614562322461       -3.46871263275357        4.36923244828994
H            1.54215305456560       -1.28229832090325        5.27659172145748
H            3.43183538343022       -0.02481527511924        4.32493995281161
H            4.72481119553577       -0.95241640737483        2.43859657181202
H            5.81540642305743       -2.50912592242540        0.55168976438186
H            6.31434355398713       -4.22837532363631       -1.14560288989885
H            4.82757845107553       -6.17110946285198       -1.42514432274865
H            2.84466039413139       -6.44464602070438       -0.01581527322441
H           -3.99615071526235       -5.88016154613560        1.91497045381480
H           -5.42051832615967       -4.71700288217277        1.80377680146140
H           -6.61643907743402       -2.91475479420329        3.47534601154324
H           -4.37248130699486       -1.21758369695134        4.91087585962657
H           -3.89798121725046       -0.58351732002280        7.48111586001255
H           -2.48057762144726        0.32540084578231        9.25315647532654
H           -0.13026133449724       -0.38644259463484        9.49554979154294
H            0.86649256998833       -2.02537481877342        7.97722259101908
H            2.11359522832129       -9.03980655172274        1.23706277347702
H            3.21925073823368      -11.22466256481120        1.60596048873261
H            4.34678787570241      -12.37304106884916       -0.25159145210793
H            4.38601531521569      -11.38305588582302       -2.50903275103216
H            4.01626877003321       -9.81590211057313       -4.73428014858375
H            3.32141448747612       -8.08931727320877       -6.35066615004443
H            1.98948857935015       -6.15401728423944       -5.62881581936677
H            1.33177321663271       -5.90532396827724       -3.25416872646126
H           -1.37788877517466       -5.62030020529989        5.10406236838924
H           -0.61642884828911       -3.36924444138297        3.13132034281246
H           -3.69845348022867       -2.04177499668858        3.05228633252733
H           -6.09629422797493       -5.51391691300910        4.52126552511817
H           -5.53834744369077       -7.45302063957036       -1.22924532786369
H           -5.18701108465890       -9.68690973453779       -1.37134503670068
H           -3.41039856961388      -11.01697451760682       -1.28239336062206
H           -1.21356262302004      -10.77332838498119       -0.97744205406706
