69
 energy: -15.771207809045 gnorm: 0.000845637702 xtb: 6.5.0 (97a52f5)
C           -0.83380420632333       -0.37467858612523       -0.45696059942852
C           -0.63888847837854       -1.63750380530635       -1.02339458563221
C            0.55453088612891       -2.29876869903991       -0.87414963322837
C            1.57163565280432       -1.68239380046108       -0.14506735509744
C            1.38469690929978       -0.41002294372787        0.42756588448056
C            0.15884211377053        0.24071059348820        0.26166062248900
O            2.52715060730192       -0.01016127461036        1.09771137248895
C            3.46449721358256       -1.02178016845063        0.96913175428390
N            4.69951087440072       -1.03280052226343        1.47624348484445
C            5.39772163148363       -2.14037795400650        1.21411901691831
O            6.68991617397422       -2.41990933525163        1.62522969134845
C            7.01972465996344       -3.67665768621741        1.14668586614635
C            8.19494457251089       -4.42019306943193        1.29159749801411
C            8.27375633448832       -5.66227645327794        0.72147493756881
C            7.20257002647973       -6.20526452572418       -0.00963741124359
N            7.31892770810492       -7.52291826111299       -0.58083819664316
C            7.18350920248841       -8.73626622178790        0.11774946115481
C            6.88444813358339       -8.98748130858196        1.45573207886564
C            6.81112279972316      -10.29138567039409        1.87885280215397
C            7.03122871153636      -11.35043884077913        0.99237936356422
C            7.32717172171148      -11.11912194876659       -0.32913505340366
C            7.40417317885248       -9.79893179353234       -0.77527101553770
C            7.68885109942679       -9.22002905999423       -2.06631110947181
C            7.99765133958653       -9.78607581601721       -3.30119772516721
C            8.24246216889843       -8.95578591378475       -4.37888556717116
N            8.58241054890856       -9.51946365409542       -5.65787157901065
C            9.72553178272718       -9.20962077281083       -6.41947672352450
C           10.77704079213243       -8.32776113718929       -6.17194355621704
C           11.78757863587389       -8.23000699710899       -7.09579276471844
C           11.77283040247529       -8.99784520476777       -8.26417330568978
C           10.74821445220114       -9.87571739131341       -8.52090510366139
C            9.71318319484479       -9.98702191824407       -7.59047890368911
C            8.52505699960429      -10.80399898566092       -7.54946750986706
C            8.00389551052584      -11.75278460736223       -8.43120380296451
C            6.82295721285345      -12.37438754304471       -8.10668243100563
C            6.14978287059152      -12.06734989079726       -6.92027543609587
C            6.64991595737200      -11.13765760183211       -6.04278569656383
C            7.85036385165679      -10.50013682550489       -6.35431043862637
C            8.17219093393732       -7.55928018173689       -4.22093366039373
C            7.87036260922977       -6.98898006353155       -3.01171427982608
C            7.62791270413430       -7.82343102828157       -1.92119368285130
C            6.03713583210453       -5.48142257692752       -0.16549730027049
C            5.94619680017798       -4.21906105535203        0.41509739703357
C            4.90237427863770       -3.23958896244176        0.45341261400659
C            3.62665858274064       -3.22585496830552       -0.07345738080817
C            2.90307583637828       -2.08163312581475        0.19891804531322
H           -1.78103504985564        0.12238180017265       -0.58747035361966
H           -1.43657018944164       -2.09651132631299       -1.58370511915109
H            0.71513337737441       -3.27155668672489       -1.30410692675409
H            0.01877936580939        1.21125646229006        0.70249536113356
H            9.01257701861626       -4.00298268641091        1.85125094200477
H            9.16863348733535       -6.25053548224583        0.82517536190096
H            6.71643846298693       -8.16495130767449        2.12785513314559
H            6.58011894687585      -10.50310329153698        2.90980816896333
H            6.96741581887188      -12.36372998012329        1.35311789414264
H            7.49815193869492      -11.92845618735193       -1.01664161703842
H            8.06188154935987      -10.85201879051299       -3.41211843202550
H           10.78547695343415       -7.74735838031074       -5.26694921968999
H           12.60645816694002       -7.55252549843736       -6.91814494935858
H           12.57964579747838       -8.90027667439955       -8.97163069235032
H           10.73203122165739      -10.47324968043299       -9.41511535039841
H            8.52685178094209      -11.98197395985032       -9.34275611817658
H            6.40696528377022      -13.10880778654162       -8.77642842540741
H            5.22323742602196      -12.56830723512063       -6.69302569904789
H            6.13484388692245      -10.89072919466631       -5.13187763059933
H            8.35631440918897       -6.93912957966700       -5.08051749790495
H            7.81842446239242       -5.92204475905938       -2.88811726927240
H            5.21411909592561       -5.89166571608636       -0.71971362435853
H            3.22761596416605       -4.04169650168537       -0.64619401898798
