70
 energy: -15.472917786826 gnorm: 0.000870008477 xtb: 6.5.0 (97a52f5)
C            2.26225135642633       -2.07328813495386       -0.08866646523099
C            2.45124479149636       -0.79031023057376        0.44026330638476
C            1.40362272101468        0.07361686044342        0.54607250841344
C            0.10886144382149       -0.30950804551893        0.12416594263957
C           -0.99434738038844        0.55888507831901        0.22035377090967
C           -2.25461257868819        0.17537758775432       -0.19466738115897
C           -3.40481500577798        1.10749062309031       -0.08495453619801
C           -4.50603509248692        0.79557815413807        0.75421063514893
C           -4.53882978170368       -0.40347322706992        1.50752446750040
C           -5.60015231345213       -0.71408011113095        2.30024425543637
C           -6.69215010787115        0.15662478420812        2.38767947627079
C           -6.69235267630101        1.32737854252466        1.69401116964781
C           -5.60139098995662        1.69827734410492        0.87067425675403
C           -5.59692962112419        2.92951940006056        0.16245050209635
C           -6.72057038613733        3.88649706504400        0.30992725911834
C           -7.49342238705428        4.27291602309146       -0.79308780685445
C           -8.51339723597180        5.17911172591039       -0.65576166861234
C           -8.80966943789334        5.73717297060130        0.58646971427046
N           -9.85843054533648        6.70325102576621        0.72442898083938
C          -10.83435475291791        6.73919595562555        1.74662080418764
C          -11.08103463296923        5.86920430368589        2.80771373704907
C          -12.12896267422989        6.13865006003757        3.65471093029425
C          -12.94155545085530        7.25814889033013        3.46283989861656
C          -12.71968507517351        8.12012795470937        2.41473447728186
C          -11.66069142118049        7.85769132769579        1.54647796716706
C          -11.18084368334932        8.54249495804214        0.36726448657342
C          -11.59940164014605        9.70618470663837       -0.27696241908442
C          -10.91025458529018       10.12948305724961       -1.38911541682177
C           -9.80883544635044        9.41497219939562       -1.86533113614080
C           -9.38594378524035        8.26684972611319       -1.24007474091611
C          -10.08022617388864        7.81652806504584       -0.11809539956654
C           -8.05309832626159        5.34862936215548        1.69046808298120
C           -7.03081356006182        4.44470885247137        1.55711700763882
C           -4.49389808994436        3.24104617768793       -0.67689659904714
C           -4.42966965361110        4.46659018525743       -1.38388389910257
C           -3.38076411970238        4.76194588724123       -2.19897891759033
C           -2.33040162128542        3.85046860329575       -2.35380944694535
C           -2.34285338484008        2.67045753017643       -1.67663422584748
C           -3.40740944610535        2.32968899592707       -0.80630998265820
C           -2.42345929781920       -1.12814213595271       -0.72934475911728
C           -1.37760783763104       -1.98839466903198       -0.83293847665899
C           -0.08136944518589       -1.60704568732134       -0.41030414061063
C            1.02732675979745       -2.47496879730067       -0.50487089702898
H            3.10139021105746       -2.74523953511832       -0.16591271969242
H            3.43346931515404       -0.48749034430449        0.76470764226176
H            1.54843942449716        1.05987751610786        0.95232469806859
H           -0.85536319574869        1.54116289549834        0.63438894059140
H           -3.70104594253005       -1.07543235188289        1.45064074451074
H           -5.60441323807071       -1.63411312437978        2.86163430290970
H           -7.53352124046935       -0.10327215060925        3.00915706300442
H           -7.54004830392266        1.98590129938592        1.76123504430719
H           -7.27908948021300        3.83783007647347       -1.75411680360669
H           -9.11246717758235        5.45686006402962       -1.50514063582571
H          -10.46406115471470        4.99872677084432        2.93992684244368
H          -12.33007375577738        5.47356057548409        4.47857206824566
H          -13.75493839180240        7.44711986065598        4.14401075026341
H          -13.34291521642020        8.98250348292488        2.25587187978583
H          -12.44339840972056       10.25515741809315        0.10196045420528
H          -11.21995780567769       11.02752112458214       -1.89805067967880
H           -9.28135034457368        9.77174606059115       -2.73474103310101
H           -8.52667113630735        7.72446210200089       -1.59117684831261
H           -8.26550975632677        5.79283930874883        2.64697377651643
H           -6.43727201837036        4.16676984346774        2.41109743008884
H           -5.22607748911271        5.17905726455100       -1.26301953614459
H           -3.35626677570222        5.69964059643369       -2.72987252074555
H           -1.50876498299865        4.08958785457254       -3.00913012387048
H           -1.53311499430306        1.97418842713346       -1.80444580425392
H           -3.40386916045747       -1.42201597908329       -1.06296740080461
H           -1.52194705988299       -2.97360650351046       -1.24166991462020
H            0.88354065163975       -3.46129549759834       -0.91131293859117
