92
 energy: -19.643313936776 gnorm: 0.000508057420 xtb: 6.5.0 (97a52f5)
C            3.79799134152937        0.09227377523037       -0.42851332515205
C            5.10881643371603        0.39332739289981       -1.18091452404936
C            5.99247864602807        1.27124274703023       -0.27705726337430
C            5.82343554629997       -0.94192009652063       -1.46102037771797
C            4.84770707398006        1.11225292617404       -2.51490814450412
C            5.91290046092336        1.43462647030682       -3.34727806828613
C            5.70710803135649        2.01149809779170       -4.58125182041087
C            4.42160726431272        2.28972156958080       -5.02104794132427
N            4.18907823671246        2.84183151939996       -6.33626945703176
C            3.97472550504688        4.18503474911258       -6.70141523515686
C            4.03941076237807        5.33483400410478       -5.80830041166110
C            3.60831985213700        6.58807961389883       -6.24528876703973
C            3.69251037431241        7.69351008334062       -5.42992565033424
C            4.22220578712730        7.58714690723487       -4.14422591092698
C            4.38218066929926        8.74875390311824       -3.24466614283734
C            3.42308782528650        9.75413966386600       -3.13167566270962
C            3.57712868716903       10.76379031851418       -2.20275695652072
C            4.67605002740818       10.78966633304343       -1.36967343882010
C            5.66209483620970        9.80681169206948       -1.46383833438694
C            6.82449692488910        9.77725184626892       -0.57886191260947
C            7.55229973923178        8.63410587486690       -0.17099909853476
C            7.23175802960105        7.23185368300359       -0.52401922182898
C            6.02016898016153        6.65195356927504       -0.14999818181670
C            5.69816804030732        5.37522135965332       -0.55570295072305
C            6.57257398516276        4.66017063804175       -1.35019522702666
C            7.78465120228759        5.21279631500556       -1.71239902065763
C            8.11637697219808        6.48377362077935       -1.29759690865382
N            8.61123698673041        8.98930696157949        0.57034780222796
C            8.57944959070001       10.32353579561350        0.65182867025328
C            9.49785079956394       11.16856097396194        1.30693129929860
C            9.32397294914952       12.51356381503955        1.22655743891153
C            8.24954823998527       13.05609218919494        0.49166305312758
C            7.36417836938724       12.24612216634617       -0.13485126405231
N            7.49794720067021       10.86562894064861       -0.05039496015500
C            5.49642467211932        8.81026310974435       -2.41939138422430
C            4.64515122227747        6.33271353485265       -3.71046266952084
C            4.55701947682720        5.23257152717520       -4.52056165650557
N            3.70559847053924        4.29753646782777       -7.99374205696971
C            3.74322631210589        3.04697372869473       -8.50247049563659
C            3.52470777442353        2.62770024678731       -9.86337308429123
C            3.23867123261215        3.56255951248417      -10.85981898774873
C            3.03336812244295        3.16089416206604      -12.15276985721569
C            3.11066563125912        1.81428942713867      -12.47720934736290
C            3.39065523795166        0.87962751613205      -11.51134122242374
C            3.60540304770457        1.25204655910039      -10.17713566676202
C            3.90084444951536        0.27512696299986       -9.12275031266466
C            3.98063012279248       -1.09980997064261       -9.38350572757827
C            4.25252570571557       -2.00238055830030       -8.38646241006444
C            4.45597129403229       -1.56912314859520       -7.08509113645530
C            4.38648893495379       -0.23424317194540       -6.79309530858021
C            4.11234559266131        0.70749047073513       -7.79037185304907
C            4.03404545323665        2.11617081850365       -7.50378114191131
C            3.35372478244962        1.99350469337229       -4.18925534941444
C            3.56489439239945        1.41459749582307       -2.95766825126355
H            4.00108504599920       -0.42090329487552        0.51114245534964
H            3.14492854748588       -0.54964873203564       -1.01903058612648
H            3.26130527782446        1.01066206073896       -0.19230018335921
H            6.19737894288951        0.77145164569490        0.66928796002007
H            5.49724005553733        2.21553522079306       -0.05423480073753
H            6.94887938140812        1.49147488667149       -0.74913961376133
H            5.99861083129836       -1.49220331853399       -0.53698651243818
H            6.78798973748261       -0.78197645411171       -1.94078989482538
H            5.22242588494002       -1.56918675157252       -2.11882711146387
H            6.91683585893919        1.21317166104821       -3.02898991214913
H            6.53684058871335        2.24243107603909       -5.22651407373475
H            3.21436827398074        6.67512090755834       -7.24295742706331
H            3.37089555712601        8.65639164853902       -5.78698734141118
H            2.54679899250844        9.71814264848707       -3.75537509974651
H            2.82197277346496       11.52772715143294       -2.11460109418934
H            4.76125188919916       11.54776279850089       -0.61199704980095
H            5.33192878478527        7.22474746598528        0.44748252563080
H            4.75307627176403        4.94207811891493       -0.27097043391925
H            6.29818489199294        3.68364688994940       -1.71299827553382
H            8.46758321306623        4.65273623178334       -2.33004980599793
H            9.05406713961654        6.92649275317465       -1.58655452372344
H           10.31922171167523       10.73459685770132        1.84842772425587
H           10.01805866645329       13.17540384817414        1.71815092330466
H            8.14166401370157       14.12596507815488        0.42302628218999
H            6.56548923243188       12.65146652110094       -0.72705078023338
H            6.25458016502269        8.05636747600599       -2.51727544755371
H            5.04946526222575        6.23312006243997       -2.72008039353902
H            4.90849501339837        4.28427274331898       -4.16349823461462
H            3.18344947696834        4.60315245648337      -10.59091395812324
H            2.81244072313547        3.88838661718260      -12.91671867379561
H            2.94907861147871        1.50176201610763      -13.49602269943886
H            3.44490441627165       -0.15631942070581      -11.79164694370442
H            3.82574054163357       -1.46272230057098      -10.38298990463343
H            4.30802561811795       -3.05459620281982       -8.61368358607064
H            4.66796639629805       -2.28306693427004       -6.30588101518003
H            4.54208124919246        0.10099201236670       -5.78512179891263
H            2.35712422262300        2.21289912453640       -4.53088111016643
H            2.71553943998306        1.18545662742916       -2.33931375061868
