55
 energy: -12.114466819101 gnorm: 0.000427993002 xtb: 6.5.0 (97a52f5)
C            2.53962641949525       -0.46673270769330       -0.04491191632208
C            2.47175237776329        0.93169226675736       -0.01030028229057
C            1.26569756719997        1.56434273914880        0.00624471249198
C            0.06205746537922        0.82120834613439       -0.01161119460950
C           -1.20066576111852        1.44329026581971        0.00548343765897
C           -2.36877054236714        0.70656431045463       -0.01275032642314
C           -3.69470646975472        1.37315647097411       -0.00324124541693
C           -4.60518509265540        1.14612742949631        1.06257101294938
C           -4.26405591614283        0.31223916496826        2.15531974443281
C           -5.14546603321320        0.06675084956510        3.16239169382374
C           -6.42239186741452        0.63715543457018        3.13548225141080
C           -6.78224160638433        1.46006944142134        2.11320529159557
C           -5.88641502922719        1.76622851934568        1.06176306779213
C           -6.25480447904546        2.65272439141351        0.01172871748497
C           -7.55009155356532        3.36660226434470        0.02718629770009
N           -8.36349121300777        3.19208560550776       -1.01215254933307
C           -9.55016245274887        3.81209817811521       -0.98346852838958
C           -9.98290375511410        4.62295081718029        0.01346064110487
C           -9.14090266073424        4.87425827573084        1.11087933679891
C           -9.49489932270525        5.73464969223647        2.17018509934528
C           -8.61947946436158        5.96963140534172        3.18994895004208
C           -7.36017772605350        5.36461395099357        3.18907866001839
C           -6.99765501139334        4.52564425444560        2.17559541903671
C           -7.88471929779524        4.24307771973480        1.11717041723413
C           -5.35860950131228        2.84408673081124       -1.07380685162833
C           -5.70564283741661        3.67344364425596       -2.16396503759939
C           -4.84922615426242        3.88090452816927       -3.20060510916103
C           -3.59619677094485        3.25858362131737       -3.20992640771644
C           -3.22501543711308        2.44807755672532       -2.18144294620722
C           -4.08062093977752        2.21913012054813       -1.07611699764234
C           -2.27533405030776       -0.70899188365649       -0.05040001908807
C           -1.07149138049790       -1.33661018318163       -0.06539923761085
C            0.13241643682433       -0.59277929002952       -0.04664145014815
C            1.39934537168618       -1.21385802318370       -0.06272402591947
H            3.50151949507636       -0.95270884221853       -0.05766161388112
H            3.38234475295380        1.50810129361546        0.00317911016327
H            1.21437638933000        2.63914842356043        0.03290434000987
H           -1.25742128969353        2.51613706692582        0.04164017500414
H           -3.28396718658950       -0.12946190466756        2.18545952013014
H           -4.86464393975999       -0.57397013915371        3.98229339322152
H           -7.11970612772694        0.42414615722614        3.92913003582538
H           -7.76843898898546        1.88914992015602        2.09425394065252
H          -10.19221368961129        3.63234749687473       -1.83164801823559
H          -10.95188890069225        5.08901158248139       -0.03157877287922
H          -10.46136837486912        6.20829906478441        2.15907894692082
H           -8.89474830097158        6.62928917074247        3.99652301076830
H           -6.67212092431416        5.56387998434987        3.99430802813748
H           -6.02219116136828        4.07233243648836        2.17485702761921
H           -6.67989554494835        4.12715499423490       -2.17185781675701
H           -5.13798585501890        4.51588008858552       -4.02212544069105
H           -2.92763587277695        3.41841149156434       -4.04005377861812
H           -2.26585144621362        1.96244052061733       -2.20551516314330
H           -3.18640272297141       -1.28178986865603       -0.07777894905200
H           -1.01898861218504       -2.41123404356220       -0.09522602408384
H            1.45260498942337       -2.28863080173405       -0.08955257652835
