56
 energy: -12.676410616878 gnorm: 0.000595448000 xtb: 6.5.0 (97a52f5)
C           -2.43934299242901        0.63053187750775        0.03105480381373
C           -2.41164777527612       -0.75568406188888       -0.12216352317223
C           -1.21891343558680       -1.41501049061015       -0.18187472986025
C            0.00448954835276       -0.72146482308499       -0.09236790330362
N            1.15855017373197       -1.41646659233907       -0.13334421009228
C            2.24260800049220       -0.68536095683425       -0.02776154196581
N            3.50549057236243       -1.36878717893254        0.01586617163390
C            4.57153664658385       -1.17948199661246        0.91894462451112
C            4.68683156776321       -0.36036419976437        2.04032689187969
C            5.87823932956413       -0.33229062096046        2.72035249411047
C            6.95881008406250       -1.11809967644425        2.31022620880676
C            6.85674131207434       -1.94675939392185        1.21906042691409
C            5.65125284136257       -1.98426357089748        0.51705592780691
C            5.22285030012661       -2.72829553826556       -0.64327425293522
C            5.86569692065394       -3.65614386941139       -1.46397593687235
C            5.17374046632312       -4.18694446786830       -2.52635827037779
C            3.85126891891287       -3.81337606004984       -2.78556258510508
C            3.20644982575113       -2.90263541550255       -1.98667540524478
C            3.89591571357233       -2.35337114505494       -0.90882195473505
C            2.21531903632982        0.73465237666354        0.04181270325436
N            3.45289686929609        1.46392419839762        0.01566079424818
C            3.80390554650566        2.45311270930958        0.95132506165049
C            3.08923735922077        2.96995531935182        2.02884763968808
C            3.70102918496932        3.88845430776122        2.84473245962652
C            5.01540494649079        4.30079464962011        2.60376986651096
C            5.73207371399959        3.80180626226013        1.54238679286995
C            5.12267719716044        2.86746689677302        0.70371246997710
C            5.58514355997508        2.14492349182115       -0.45719171918927
C            6.79727886377386        2.15026979104180       -1.14866348038840
C            6.93612237610797        1.33037042150107       -2.24240602375252
C            5.88577127302898        0.51106960175975       -2.66538036568130
C            4.68733290607740        0.49858027370278       -1.99742851396110
C            4.53453644420834        1.31060101592974       -0.87538686144420
N            1.10278121644649        1.42460391717205        0.12709032109384
C           -0.02349469930975        0.68692500813001        0.06135820694480
C           -1.27391958064482        1.33401786757761        0.12051901744234
H           -3.38503094595193        1.14518980574610        0.07668696126308
H           -3.33596681349682       -1.30536395248798       -0.19149633597377
H           -1.18812625670580       -2.48460911445119       -0.29436647055370
H            3.85162236492800        0.24518009306191        2.34215475266672
H            5.98356278678195        0.30820835365469        3.58055800905314
H            7.88407971803687       -1.07490954876159        2.86074235179793
H            7.68208140179540       -2.55804859865311        0.89940901393653
H            6.88348030688725       -3.93793252131702       -1.25966421515040
H            5.65668373943277       -4.90338764976231       -3.17022399967435
H            3.33116839546722       -4.24853187287545       -3.62299652054357
H            2.18723448969423       -2.61025083575461       -2.16306921930741
H            2.07747833795320        2.64611138734521        2.19298522273589
H            3.16135618540626        4.29864803742020        3.68238809209502
H            5.47253465406207        5.02168052200387        3.26138498796577
H            6.74453672632905        4.11187987977387        1.35317870538956
H            7.59930096841463        2.78674912853463       -0.81897171393824
H            7.86733244842093        1.31967003047249       -2.78442813721600
H            6.02047017703800       -0.12325373374082       -3.52604325540279
H            3.87476286899764       -0.13202687595020       -2.30971903670440
H           -1.28601578552597        2.40399753791434        0.23287520285995
