17
 energy: -3.616682165068 gnorm: 0.000563697469 xtb: 6.5.0 (97a52f5)
C            2.42399720331611       -0.68245383081750        0.00232685850154
C            2.38656985516271        0.71534164561986       -0.00072513158147
C            1.19316842436521        1.37423764999616       -0.00333338823576
C           -0.02916667118035        0.67091670147789       -0.00300984562926
N           -1.19934747889359        1.36827184588303       -0.00391978715219
C           -2.29655417627875        0.66345895984289       -0.00340479697926
C           -2.35549825111897       -0.72833738043062       -0.00210030605773
C           -1.20258459012954       -1.44219572352183       -0.00076931391489
C            0.01504093950605       -0.74276540833993       -0.00070651511100
C            1.26602615918749       -1.39901271969724        0.00243696434731
H            3.37417037662325       -1.19102015189661        0.00456935164128
H            3.30904719094126        1.27262769601279       -0.00104652963347
H            1.15953895049990        2.44967940903674       -0.00521696347789
H           -3.21937748354261        1.22279993853030       -0.00385531933166
H           -3.30951240549157       -1.22959450563428       -0.00223991739318
H           -1.20758877239459       -2.51861373830031        0.00084062952754
H            1.28994072942800       -2.47515038776135        0.00491401048010
