62
 energy: -13.533373447763 gnorm: 0.000613576239 xtb: 6.5.0 (97a52f5)
C           -2.10576214382080       -3.11160094820533        0.25916676534574
C           -2.39109718968023       -1.74976102423986        0.35955102309728
C           -1.38079298113409       -0.81908951948632        0.34109564891690
C           -0.06665829442577       -1.24905995138654        0.22089736287222
S            1.40668347547284       -0.31260863412352        0.16038350201701
C            2.40928905778040       -1.74746040913486        0.01157349792952
C            3.84409434150310       -1.71966046178543       -0.08898824565401
C            4.61678225992923       -0.59138547467475       -0.09996174858920
C            6.00069754910983       -0.84468175371148       -0.20533863535284
C            6.31353669997024       -2.17261054203127       -0.27507579437957
C            7.64938239315661       -2.70473120401356       -0.38318936572403
N            8.74943511969016       -1.94652274746038       -0.44474038982241
N            9.77672297474331       -2.72477658564339       -0.53978681808798
C            9.34841263426361       -3.98996600880590       -0.53826932792038
C           10.22365168157492       -5.14609505841738       -0.63260275933787
C           11.59899062436437       -4.97820378144867       -0.77264586564282
C           12.42656010466632       -6.06713717062309       -0.87268650895339
C           11.90508686793981       -7.35788896066795       -0.83302250511459
C           12.78479961670444       -8.50865654237078       -0.94964905432679
N           14.10540217472122       -8.42370558739696       -1.13094082661560
N           14.58541610756987       -9.62146025170873       -1.20024028140749
C           13.57694524723841      -10.48931540646565       -1.06423237721307
C           13.74358367436372      -11.92141439605325       -1.09821501538575
C           14.92672951637392      -12.56711012100036       -1.32009797835881
C           14.81853983906385      -13.97356977487507       -1.30491730528894
C           13.55204941123781      -14.43158286920862       -1.06760437779313
C           13.16694370667362      -15.81599508689750       -0.99651401605618
C           11.91607500532789      -16.27380162592964       -0.72107319120216
C           11.80896335566250      -17.70611708484409       -0.71264841859509
C           10.66139708686953      -18.47768979960208       -0.46474943576196
C           10.75162116199345      -19.84505861218383       -0.50324659232654
C           11.96544091068668      -20.47203048893829       -0.78532175404645
C           13.09647844889599      -19.73152093658858       -1.02953068435357
C           13.01951175110709      -18.34622185215089       -0.99314667683884
S           14.27134237854430      -17.15686600102094       -1.25831904370926
S           12.46793228840637      -13.07744366982583       -0.86242265605781
O           12.40721491777521       -9.81465628753807       -0.89883959466088
C           10.53058242956971       -7.52676112083258       -0.68832054592759
C            9.70144737599322       -6.43618803694630       -0.59081987006200
O            7.99207309257411       -4.01999096888380       -0.43866594138319
S            4.86539847803515       -3.13066660113448       -0.21416330581097
C            1.64057170780676       -2.86960917742347        0.00778665319534
C            0.23255562798449       -2.61106868544410        0.12389888118977
C           -0.81218525954836       -3.55011460589243        0.14203512177605
H           -2.91236677753534       -3.82571928854525        0.27393834532065
H           -3.41437144430507       -1.42535180741161        0.45209397988877
H           -1.58925799512881        0.23386867475748        0.41600920829063
H            4.19731402926161        0.40016418890374       -0.03325394438587
H            6.75183998081893       -0.07024313369100       -0.22689840042017
H           11.99910902594713       -3.97965244810615       -0.80430252474475
H           13.48936444890828       -5.94050316140675       -0.98499783352605
H           15.85244316618036      -12.03903846198977       -1.48934522676128
H           15.65541876485119      -14.63565712101936       -1.46255302181543
H           11.08132628344469      -15.62214269220816       -0.52617664223136
H            9.72875824338954      -17.98764894158678       -0.24802613198890
H            9.87597085366325      -20.44348884640826       -0.31374839506920
H           12.01542263272874      -21.54799632060455       -0.81175361217139
H           14.03785527633599      -20.20435454023938       -1.24867217620695
H           10.13320695355685       -8.52681133770216       -0.65815553789705
H            8.63748576783349       -6.55948119976466       -0.48257072845895
H            2.04970647533857       -3.86210466360822       -0.07610138381913
H           -0.58502091196900       -4.59850307225547        0.06326247735509
