11
 energy: -2.227309693779 gnorm: 0.000282276814 xtb: 6.5.0 (97a52f5)
C            1.43305632327498        0.05092677262970       -0.00149514082236
C            0.68147259311438        1.19981476532242        0.00006856089160
C           -0.69026523498661        1.09475727305541        0.00332485197816
N           -1.35387587683763       -0.04826906941821        0.00506175436613
C           -0.61067975656816       -1.14122481297450        0.00367597369779
C            0.76505592169662       -1.14848726485053        0.00039893045570
H            2.51018691749642        0.08926530522691       -0.00410142795359
H            1.15724739738583        2.16675056748675       -0.00131485260608
H           -1.28899767254229        1.99316530354838        0.00426863009394
H           -1.14401597940581       -2.07992987477973        0.00536004543214
H            1.30837536737229       -2.07914896524661       -0.00076732553343
