9
 energy: -1.842987127393 gnorm: 0.000805277567 xtb: 6.5.0 (97a52f5)
C            1.33960706471015       -0.71272432990971        0.00128284389985
C            1.33631123540946        0.71991876894481        0.00117171229759
C            0.09749688319296        1.29152056063461       -0.00417843112984
S           -0.93509989722327       -0.00163378056065       -0.00852100586048
C            0.10343496431591       -1.29002338190088       -0.00397496070971
H            2.25566594744916       -1.29397987546286        0.00526173929109
H            2.24968831271431        1.30538284966603        0.00499933455324
H           -0.18062958083126        2.33510779066073       -0.00546276632637
H           -0.16988492973741       -2.33487860207208       -0.00543846601536
