71
 energy: -15.596885480486 gnorm: 0.000994508086 xtb: 6.5.0 (97a52f5)
C            1.61674750839306        2.32638190769210        0.14211873631367
C            0.37320063259452        2.45473501620921       -0.43144681294443
N           -0.32247160749568        1.45312826393245       -0.94181995403491
C            0.25131288051547        0.26659096142528       -0.87674155140415
C            1.50115549897473        0.00635276695292       -0.32423478355384
C            2.05920471606035       -1.36263954743291       -0.29530457015684
C            1.86889158769615       -2.23801688061775       -1.36473083031596
C            2.38264585696554       -3.51084203556083       -1.33621757986266
C            3.11286019099755       -3.96669603191685       -0.23428141055824
C            3.66310150183139       -5.34459716900925       -0.19677244456944
C            4.63114258523373       -5.75984202902215       -1.14904435128196
C            5.10896118894807       -4.87408425731980       -2.14527983439928
C            6.02099262461210       -5.27488820243616       -3.07176442685980
C            6.51053335355962       -6.58557795390034       -3.05762155703028
C            6.09067044141260       -7.46331501452256       -2.10737538851262
C            5.15570065682624       -7.08338178531042       -1.11335139589685
C            4.73063647795927       -7.99674249968187       -0.11423739405762
C            5.28421789665156       -9.37226692098513       -0.06291025481822
C            6.65092798154493       -9.59238607846719        0.13743067830796
C            7.16056729676132      -10.86584779093421        0.19090255557579
C            6.33075030993084      -11.97786198794163        0.04772305321174
C            6.88233353064365      -13.34905236469875        0.09953871089682
C            6.41417483917925      -14.35164830711459       -0.73596556646358
C            6.97450550648128      -15.59854142230084       -0.63778610009418
C            7.97581791925243      -15.80838867336667        0.28197707790602
N            8.44934739495027      -14.88142385849148        1.09722664300407
C            7.89760396402411      -13.68770377936251        0.98789831324243
C            4.96728720315755      -11.76160482988670       -0.15048549978179
C            4.45448040617593      -10.48945510234427       -0.20514357683336
C            3.76542953991381       -7.57910141969949        0.83824981153284
C            3.32645583414821       -8.44871262052342        1.86022249803018
C            2.37817044306429       -8.07980427378310        2.78155767377649
C            1.93219125169874       -9.02740207525430        3.82462347432704
C            1.76847071511178      -10.37686831644639        3.55370996893103
C            1.34611029449859      -11.19901054522025        4.56571104104343
C            1.10346525360608      -10.65741324605074        5.80665545424779
N            1.25033784285927       -9.37856521630867        6.10676093638044
C            1.65717017922922       -8.60251525466952        5.11965086843283
C            1.82949180914902       -6.77978019336845        2.69938326338547
C            2.23980113586388       -5.90706349850175        1.74378182361913
C            3.22801667655733       -6.26134291654548        0.79131151292633
C            3.30389221822924       -3.08670162217217        0.83542840601808
C            2.78819686209636       -1.81489633373024        0.80429305865563
C            2.19634388140456        1.08566306893370        0.19979034405269
H            2.12848996556214        3.18841296615472        0.53771048056548
H           -0.08844420089429        3.42950525357376       -0.47939788046868
H           -0.31527627135837       -0.55911786408086       -1.27522569068506
H            1.32054431050587       -1.89937931715733       -2.22653572901003
H            2.21996781456920       -4.18021238070322       -2.16339454830182
H            4.74313356801284       -3.86307532526557       -2.16010727690511
H            6.36724142819839       -4.58440877656251       -3.82322610939070
H            7.22397380425003       -6.89661094925632       -3.80316759523096
H            6.46656370590155       -8.47091072499379       -2.10907819288751
H            7.30050622979495       -8.74282137100032        0.25980454807027
H            8.21685653456550      -11.01635889000975        0.33088777322935
H            5.63879139395876      -14.14397853399878       -1.45310816693684
H            6.63832629797469      -16.40110420891246       -1.27342021845429
H            8.42179247316621      -16.78806472983927        0.36316950491278
H            8.26639135113392      -12.92893323047809        1.65849278762122
H            4.31252395103498      -12.60994792174837       -0.24926894647687
H            3.40152288555913      -10.33591882771415       -0.36800786603065
H            3.75887350232797       -9.42873156087170        1.93005842710424
H            1.95706596503282      -10.76036503683794        2.56561988557351
H            1.20297955898150      -12.25259143678470        4.39101890276567
H            0.76890720395937      -11.29990980929970        6.60745058259440
H            1.79365672105555       -7.56023483101712        5.35699545957090
H            1.06674170568906       -6.49295319435459        3.40226964014087
H            1.80052096087929       -4.92673710031670        1.69438558471522
H            3.87007899578443       -3.42179174714330        1.68751279787536
H            2.93239413237412       -1.15603852233627        1.64279524632312
H            3.17363173068608        0.94685814065008        0.62877597930251
