62
 energy: -13.558206470738 gnorm: 0.000797679416 xtb: 6.5.0 (97a52f5)
C            0.54465358360133        1.31110645732021        0.67183967737768
C           -0.80600690043435        1.25336842468681        0.41683481604667
N           -1.47053279705379        0.14211382141245        0.14872432300942
C           -0.75138121247105       -0.96438561134475        0.13320391884657
C            0.61655618336441       -1.03774275417681        0.37322777381342
C            1.33730641013555       -2.32847339293949        0.32650167250287
C            1.04923238849566       -3.27401701112056       -0.65765567148352
C            1.72071659167071       -4.47047576672923       -0.70497997986283
C            2.71158863074835       -4.77659805907563        0.23323274039344
C            3.44050656659744       -6.06912955543721        0.18157875123856
C            4.27142565772638       -6.37958895648654       -0.92535012195967
C            4.44460063843220       -5.46643538553214       -1.99482856510726
C            5.23434587847927       -5.76633946180093       -3.06086736058608
C            5.89615071888488       -6.99825406591609       -3.12358530808725
C            5.76710709492668       -7.89768017222831       -2.11185291902671
C            4.96948526604228       -7.61962699730771       -0.97461876030304
C            4.84731598638037       -8.55534826772974        0.08468191048786
C            5.57833783405722       -9.84650639186209        0.02961473005041
C            6.97640286454153       -9.88275772034712        0.02772201793069
C            7.65146843478413      -11.07617125790097       -0.04066414751459
C            6.96310673731319      -12.28748510728219       -0.11059932832772
C            7.69173159791054      -13.57145697828166       -0.19798049435079
C            7.24416764454224      -14.60641560928654       -1.00480380084872
C            7.97400533866062      -15.76591111901794       -1.04494641004972
C            9.11738878047672      -15.86009590978054       -0.28580007528834
N            9.57723004064701      -14.89874477915207        0.49685399695711
C            8.86162511369634      -13.79017374307666        0.52178041680668
C            5.56861426410617      -12.25423167741970       -0.10380216962483
C            4.89052298611768      -11.06241289996450       -0.03461988139256
C            4.01801309292416       -8.24367216051524        1.19238159531606
C            3.87890360392552       -9.13805913986416        2.28222601846358
C            3.07590072723043       -8.84549928325328        3.34019528373070
C            2.36304892688463       -7.64092755916618        3.37318250109370
C            2.47842836263814       -6.74869943322727        2.35323461686714
C            3.31433961104378       -7.00647599324343        1.23888989655002
C            2.99733025841413       -3.82721558900354        1.21976149198055
C            2.32525621753359       -2.63085347508844        1.26344688928077
C            1.27385621379009        0.15064859730318        0.65245354521379
H            1.02217347348049        2.25433661725364        0.88030048577648
H           -1.38553900916374        2.16391244153340        0.43132756750159
H           -1.28508802346673       -1.87792835844335       -0.07213711855383
H            0.29712297477452       -3.04881417353444       -1.39382518720850
H            1.48603336422828       -5.19474200354147       -1.46595978867223
H            3.94270648857796       -4.51629488822557       -1.95248733181455
H            5.34910944517200       -5.05782738802914       -3.86465858424834
H            6.50830055763621       -7.23122096815686       -3.97933526569381
H            6.27287208662825       -8.84479819745482       -2.17229128356278
H            7.51896729385532       -8.95476185473215        0.08500879791764
H            8.72751788065022      -11.08461789583626       -0.05729640320820
H            6.35239302481360      -14.48855518407196       -1.59599684231485
H            7.65871732650497      -16.58997196946739       -1.66368744839691
H            9.69645323548037      -16.77067957186652       -0.31363842882094
H            9.22069025750737      -13.00537871505701        1.16730790435173
H            5.02361829152060      -13.18137176035743       -0.14406466891293
H            3.81414803488384      -11.04918710359446       -0.03999621646051
H            4.42680472278107      -10.06337339187852        2.26781637153215
H            2.98366266479690       -9.54195992837270        4.15743709040940
H            1.72308737824849       -7.42232489929232        4.21228925599180
H            1.92253035302905       -5.82853957320749        2.38375176305788
H            3.76244349206617       -4.04747035832773        1.94418574915318
H            2.54915434793538       -1.91547750139290        2.03563761333697
H            2.33504100130596        0.15499060989276        0.83302837869555
