23
 energy: -4.580988926337 gnorm: 0.000260018226 xtb: 6.5.0 (97a52f5)
C            1.16405687743033        0.77974996919126        0.35614571653785
C            0.54246629466801        1.12643059781456       -0.79246484176748
S           -0.28099478644260       -0.22796901513027       -1.47931335841047
C            0.22550268750983       -1.28902420088774       -0.18628090449255
C           -0.12144657021564       -2.68673018571991       -0.09950981796474
C            0.21851382473711       -3.54652169825004        0.90929741698029
C           -0.25852677363124       -4.86519354929682        0.72781954050262
C           -0.97449291172488       -5.04567955685672       -0.42429581586922
C           -1.57861418535783       -6.27673265478381       -0.87259218632694
C           -1.53105945546871       -7.48320503850890       -0.23202515966485
C           -2.21915806334837       -8.52239263622783       -0.91504201550489
C           -2.79148249545596       -8.11945742374644       -2.07091150479899
S           -2.49728432200894       -6.44036067675646       -2.35016712466791
S           -1.05711108200005       -3.53929527610985       -1.29905708711319
C            0.98783765820109       -0.58672032690659        0.70459737394607
H            1.74048942667182        1.47135949512449        0.95340099434105
H            0.54738450836456        2.10489323910042       -1.23427848829609
H            0.79819735398641       -3.24466398960165        1.76744850981440
H           -0.07572206260529       -5.65838387645000        1.43563730483772
H           -1.01602009611592       -7.63364488504650        0.70382127383924
H           -2.27594344384415       -9.53574921150037       -0.54456991668828
H           -3.35513369229261       -8.74281832009062       -2.73900937134973
H            1.41974130894324       -1.02956077935802        1.58835946211726
