16
 energy: -3.112112566369 gnorm: 0.000482785103 xtb: 6.5.0 (97a52f5)
C            1.25796173064803        0.73974112457056        0.27167538074083
C            0.17808716459076        1.21951753652601       -0.38293105800513
S           -0.91744426541532       -0.05629699821309       -0.77942794153537
C            0.10661404435717       -1.26721091774985       -0.04559780888837
C           -0.20281792597664       -2.67899713418846       -0.00136266747222
C            0.54510223304850       -3.65117846812695        0.59907737177837
C           -0.00653899792480       -4.95614447957579        0.47882214026380
C           -1.16934452348262       -4.98674680921722       -0.20808793304443
S           -1.61894717529241       -3.40129758708099       -0.72686200921884
C            1.22252429123796       -0.66843318689001        0.46539744189649
H            2.07221357993199        1.36223468823060        0.61385428930179
H            0.00652089659341        2.25003859251778       -0.63018728172560
H            1.46883606125750       -3.44824659293255        1.11785867901065
H            0.46263010678936       -5.83566987904596        0.89556610634292
H           -1.74764561464021       -5.86730109495404       -0.41505680068226
H            2.00986839427690       -1.21445879386919        0.96083209123804
