184
 energy: -36.328431440192 gnorm: 0.000606853502 xtb: 6.5.0 (97a52f5)
C            1.32785157842354        0.42602214852240        0.51263908251873
C            2.85772123101507        0.59767147861340        0.58378822922453
C            3.35205915097896       -0.00525166599112        1.91174172417362
C            3.48655245883470       -0.16444532507245       -0.59747029832209
C            3.27019277317906        2.07653513952828        0.51088328341449
C            4.61472482885669        2.42019772169484        0.56525445635321
C            5.02174203303793        3.73384525465109        0.49276998522733
C            4.09566909993454        4.76784581102117        0.36064895869278
C            4.56194147550762        6.14380639490526        0.26962861461501
C            3.78209513841154        7.21852463165460        0.06580548969994
C            4.24899330037908        8.58806225590622       -0.05865087848456
C            3.33094366117344        9.60485008993016       -0.34210112499738
C            3.73919818507911       10.90606405895369       -0.49759891055609
C            5.08474472070274       11.25156446578920       -0.37945478764072
N            5.51183706260657       12.60661854962149       -0.57599730206251
C            4.72250833535361       13.67609830540549       -0.04229611104463
C            4.60555230281368       14.89388705141377       -0.71075568941828
C            3.85488660579695       15.91555271095381       -0.18359066087705
C            3.18770108615216       15.76731282432631        1.03718591581734
C            2.40792635095396       16.87120105989146        1.56899380854602
C            1.81776494802781       16.89318396941379        2.77578569566098
C            1.03437235111756       17.99520897821118        3.31449629726263
C            0.58975738290308       17.94271607527038        4.63501516891943
C           -0.15364614228644       18.96808878288646        5.17555034358161
C           -0.48991515227947       20.08864154805553        4.42700916897677
C           -1.32044661974244       21.21169894490606        5.06832954241680
C           -2.67436555938504       20.64300077428735        5.53235679155196
C           -0.55645138661239       21.78283442747829        6.27738008765979
C           -1.59062263357825       22.36086328848496        4.07758536574681
C           -0.05063544447733       20.14084892893717        3.10933807061636
C            0.69462287360504       19.11907927796225        2.56188616895125
C            3.30143173150200       14.54046661926447        1.69925278815489
C            4.05074778633519       13.51992848973689        1.16945415214226
C            6.75654961177625       12.86921198706868       -1.23261355933163
C            7.52825298685535       13.98237939952573       -0.89990455177016
C            8.76833552155682       14.17123098468313       -1.45757406015217
C            9.30287173735261       13.23506365365655       -2.34733524428984
C           10.67378970980558       13.34630623323027       -2.89020132989397
N           10.80857630678424       13.10386041967836       -4.17673991214302
C           12.05076119815708       13.27299435037735       -4.67549062704107
C           12.27911013324928       13.05717947132047       -6.04906911103713
C           13.51477068024438       13.24260936685509       -6.59814553274213
C           14.58131046974716       13.65379634101545       -5.79866098365830
C           14.39405114451399       13.86996326990711       -4.46427429413207
C           13.13221940786480       13.68623774070119       -3.86512709392961
N           12.99424785440106       13.88827913799373       -2.53818448069803
C           11.78842896116436       13.68411878967195       -2.05152490954165
C           11.64692117468783       13.83676715236952       -0.58901675941175
C           12.40887418673475       14.80280620142701        0.06737040009621
C           12.27278554793553       15.01577851591648        1.41596724206416
C           11.35986407479115       14.27885765431497        2.17001250862949
N           11.13885232738018       14.58516156820378        3.54988944848200
C           11.39790506139405       15.90816038263190        4.04278263782725
C           11.97062783219695       16.09382935573912        5.30038687879779
C           12.23430444775985       17.35464205646855        5.77429221276250
C           11.93111217905140       18.48995170057112        5.01538998835512
C           12.24892344474371       19.80595590163242        5.54080133688155
C           11.96893068508944       20.97453191178028        4.94009615997305
C           12.31843348820865       22.29096756990380        5.45413905526710
C           11.84675651211078       23.43214953371338        4.80655765578044
C           12.17347616562014       24.69142588787719        5.25827321338802
C           12.98501646641844       24.87176386528965        6.37100947221026
C           13.33768015772785       26.29411404775689        6.83471378213241
C           14.08329462931456       27.02684312395476        5.70390031814982
C           12.04359958667573       27.05395934890279        7.18015225183902
C           14.24119423164047       26.28197330139889        8.08335250742766
C           13.45577672629666       23.73527638395456        7.01787106285702
C           13.13219644919112       22.47199783939745        6.57230301392929
C           11.34129053541379       18.29928831162432        3.76115213130463
C           11.07947348725578       17.03713760633227        3.28826839392556
C           10.55715996638136       13.62240653255645        4.43865702858892
C            9.60378583623174       14.02214939913860        5.37414918634593
C            9.01849585457392       13.11164139538308        6.21664406928095
C            9.36345557616374       11.75749233603269        6.16722273966201
C            8.70647679196139       10.82741653561353        7.06772295160363
C            8.97394928636399        9.51567607049729        7.17666802452491
C            8.29365716677983        8.59871464009546        8.08035774003117
C            8.78422120470012        7.30554408240060        8.25570254691326
C            8.16131507765375        6.41926826030810        9.10640213363901
C            7.02156000242855        6.77719874387930        9.81507226003653
C            6.35986935192101        5.76230055515110       10.76085324009674
C            5.96351364070443        4.50434320749133        9.96543600246737
C            7.35503670343930        5.38116306644345       11.87238150093413
C            5.09091860442852        6.33759866048984       11.42000753179946
C            6.52850579667760        8.06422772085260        9.63740984902605
C            7.14732488794983        8.95682558877881        8.78978149516421
C           10.32954754278414       11.36150629589025        5.23576266877176
C           10.91386046895498       12.27504328903049        4.39236613384122
C           10.63868037029448       13.27340129564334        1.52701924399408
C           10.79521948513696       13.04179239043829        0.18314977510310
C            8.50335222439326       12.15745306310240       -2.72731850794295
C            7.25696151205524       11.97938014181461       -2.18293100007106
C            6.00132151551484       10.24501669085775       -0.07612726746681
C            5.59521536020812        8.94276894766982        0.07911855649319
C            2.74521035142654        4.42298416863396        0.31133985781412
C            2.34540783723577        3.10625535803320        0.38472935476971
H            1.05440115297646       -0.62762476630268        0.56682987448587
H            0.93167206612739        0.82070655049563       -0.42266277187860
H            0.83671427020878        0.93643418179652        1.34074572331074
H            3.05507648951684       -1.05009703312470        2.00000586295760
H            2.93439599240837        0.53709600167821        2.75964086501469
H            4.43767468087418        0.03921729890016        1.98778223628815
H            3.19543737589978       -1.21456829551702       -0.58360297737958
H            4.57434216572430       -0.12026402112207       -0.56368268627865
H            3.16361114771801        0.26271998780964       -1.54659764311863
H            5.35321326105452        1.64340385019353        0.66285587891623
H            6.07059764643583        3.97419510523098        0.53311451697441
H            5.62318095609691        6.28690520804694        0.35587171096420
H            2.72285787695835        7.07215757183417       -0.03805378182649
H            2.28957709023012        9.35292351854389       -0.44847233797127
H            3.02609713564650       11.67701782620432       -0.73229297520455
H            5.10496965270103       15.01638598153309       -1.65603065194064
H            3.77521674919798       16.85060206410900       -0.71130554284181
H            2.32103925979416       17.73619540421515        0.93750922092598
H            1.93422135078279       16.04170626660184        3.42061552032738
H            0.83844936347241       17.08454113877426        5.23612270319190
H           -0.48068196804854       18.90053633701219        6.19873349320144
H           -2.54120212414078       19.86085152215334        6.27857120349659
H           -3.22006362199428       20.21439872290654        4.69210177533732
H           -3.29394353372065       21.42281843023141        5.97469605624085
H           -0.38795803239715       21.01991779014902        7.03622193496721
H           -1.11304038834239       22.59668456948167        6.74156872182760
H            0.41486744885830       22.17010669107436        5.97076034404023
H           -2.14755659988824       22.00806159333558        3.20991745235638
H           -0.65911409140281       22.80955776092273        3.73341643484658
H           -2.17976300039144       23.14721829828812        4.54920252475583
H           -0.29445060799647       20.99167367781762        2.49815325086203
H            1.01023783230741       19.18794801681370        1.53607292315957
H            2.79178267291187       14.38816014360548        2.63360932682353
H            4.14111597545733       12.58400116036524        1.69277889982882
H            7.15352695283441       14.67628247974325       -0.16827537541379
H            9.36026210464429       15.02780568724759       -1.18468700833562
H           11.44891792767853       12.74561329623791       -6.65871377315072
H           13.66870509956239       13.07385440970781       -7.65154793142508
H           15.55493519507674       13.79878288220606       -6.23769299043147
H           15.21186000580708       14.18281624343245       -3.83910025854325
H           13.10087369371209       15.39083504462049       -0.51064675252988
H           12.86756791930674       15.76616833676625        1.90656775977077
H           12.21644340071687       15.22697139823583        5.88874796036173
H           12.68597167092177       17.48004723799877        6.74358586610549
H           12.74950189265102       19.82477182599584        6.49137344975854
H           11.44345163205733       20.95939007217209        4.00314165034261
H           11.21785826015764       23.31840574966655        3.93989038738542
H           11.79543612933669       25.55376228402105        4.73687932703159
H           13.46498359145240       27.11101872837949        4.81108460761054
H           14.99228832073063       26.49090345380678        5.43204348363548
H           14.36425281243371       28.03415532385702        6.01046426307867
H           11.39036257838721       27.14024665005678        6.31276378533741
H           12.26529152104522       28.06166142947157        7.53094464704750
H           11.49175042462764       26.53721428381177        7.96501152666652
H           15.18295611559125       25.77218681489889        7.88157550508823
H           13.74919345035707       25.78469951529129        8.91892429588696
H           14.47849623896727       27.29796735432500        8.39854408348033
H           14.08917135896470       23.83555422370677        7.88136552684777
H           13.52559739001053       21.61470430780961        7.08872868668912
H           11.09399849680275       19.15051357279540        3.15265136656203
H           10.61363552896704       16.90253782111271        2.32751098548285
H            9.32126011134660       15.05972112727399        5.41335860374075
H            8.27821924957492       13.43682757024977        6.92766512862260
H            7.94903950168543       11.24853089346676        7.70323136085451
H            9.75339976010562        9.09407612638060        6.56901109440017
H            9.66733946389803        7.00486304811495        7.71805026146702
H            8.56700782057428        5.42976595912109        9.22707367251883
H            6.83514422901802        4.02075338088401        9.52646927950267
H            5.27941170553532        4.76024350908680        9.15658945333990
H            5.46869753148463        3.77665956941372       10.60833198079520
H            8.25221823712809        4.92163703719739       11.45964115547015
H            6.90847327467494        4.67331838071598       12.57038424317616
H            7.65960637343457        6.26342428625577       12.43496627648374
H            4.35094643270256        6.61569264379268       10.66967110642888
H            5.32369610301734        7.21661342254755       12.02073416167157
H            4.63086029733971        5.60190470334650       12.07947280419348
H            5.64637809650566        8.37688370704195       10.16750076477225
H            6.73001588881482        9.94031346471155        8.66605415228792
H           10.61678905384944       10.32721841953490        5.17341897333983
H           11.66560668838959       11.96277222401612        3.68849642150708
H            9.92780730201991       12.69732783667502        2.09248136974953
H           10.23662473352803       12.25591125729644       -0.29454872845301
H            8.89312819510437       11.45386339557776       -3.44266018522829
H            6.65361569835794       11.13797745338234       -2.47570833949846
H            7.03823427922731       10.50826894326879        0.04116572074693
H            6.32556449744607        8.18810677692670        0.30957520699437
H            2.00147949662625        5.19375392312153        0.21609154369928
H            1.29511756913035        2.87880008801087        0.34119059263274
