81
 energy: -15.588584521170 gnorm: 0.000669723290 xtb: 6.5.0 (97a52f5)
C            1.90546370886989        0.79393224826576       -3.48933400117654
C            3.26380039068712        1.30873887782360       -4.00068224931009
C            4.31547996673512        0.20317006460951       -3.78492097627087
C            3.17288284941449        1.60276471005295       -5.50960904150802
C            3.62951580534256        2.59890104330102       -3.25029401826228
C            4.76050890088927        2.70240738238490       -2.44857180903254
C            5.04813348751152        3.86514898618826       -1.76835678550700
C            4.21050361957135        4.97198372053193       -1.86484602465231
C            4.48551107364779        6.20510974459532       -1.08957149890855
C            3.61477154020218        6.70899526354848       -0.17032499797616
C            2.35632921203593        6.15660169419950        0.30519214659537
C            1.35046516228173        7.00119807115431        0.77249718836561
C            0.16749866242263        6.49548419061488        1.26104567042911
C           -0.06200596389082        5.12523292638265        1.30930927018738
C           -1.36976100836361        4.52443984244961        1.84747210580839
C           -2.35625208720450        5.61697327655542        2.30361863989921
C           -2.04276102260628        3.69500073853971        0.73800012347426
C           -1.05540190161646        3.61995856514140        3.05361376411768
C            0.94324271190752        4.28265992413420        0.85127600285939
C            2.12820734167238        4.78251882342677        0.36207836537692
Si           4.41927176377117        8.19963621581520        0.54870723575912
C            3.39011416396750        9.71032172521390        0.21097110737272
C            3.09164914397011       10.05094551235674       -1.09032780420070
C            2.25249216608885       11.11694756307084       -1.35027111005954
C            1.71297966460146       11.83942636840797       -0.30403111954302
C            2.01305781304309       11.49746492669115        0.99995248038291
C            2.85306724278169       10.43144647488833        1.25558821108942
C            4.81578741637128        7.94055154833188        2.34956423948050
C            4.14842730166024        6.97461363845441        3.07204872684658
C            4.42087862906412        6.79895512236944        4.41400136723841
C            5.36340399664351        7.59571598323591        5.03337730703935
C            6.03054716223296        8.56564166933828        4.31110271169225
C            5.75512162145779        8.73684359697893        2.96822761637816
C            5.91668520280775        8.12841558137598       -0.51115750056832
C            7.01992721843364        8.93607536087484       -0.64735283987851
C            7.97671140851958        8.61901457223097       -1.59371578845987
C            7.81907756036738        7.50262389634269       -2.39665199696778
C            6.70929817000159        6.69399505517491       -2.26376916433988
C            5.73708497192183        6.99740152890926       -1.30951866034644
C            3.08180726716509        4.87458174443528       -2.67277056357027
C            2.79980826553246        3.70879113869061       -3.34888700637809
H            1.62581951185284       -0.13307206699294       -3.98962518910009
H            1.11366406345072        1.52050035252242       -3.66792993123462
H            1.94598765826738        0.60108909026202       -2.41740994026528
H            4.04485562088704       -0.69982131795482       -4.33217492952929
H            4.39565084272449       -0.06244971430983       -2.73102637083471
H            5.29643937387986        0.52051312784949       -4.13811914139300
H            2.93980778608229        0.69736937139158       -6.06984387017167
H            4.11843374450017        1.99602333964210       -5.88251270312989
H            2.39629164249765        2.33549331538857       -5.72541924862001
H            5.42389675155464        1.86214586861289       -2.34611778414294
H            5.91879613898418        3.92583609861098       -1.13775386934019
H            1.51658915213001        8.06382797899922        0.74899993325848
H           -0.58569980042839        7.17876828360150        1.61108054316651
H           -2.62398595862869        6.27429444758650        1.47667699729229
H           -1.93074666143357        6.22094813561913        3.10479473366373
H           -3.27697360616421        5.17284928306726        2.68181980978180
H           -2.25349236896843        4.31598424636309       -0.13245614849640
H           -2.98457747378973        3.27038446991592        1.08509470474423
H           -1.40540373389539        2.87255097284498        0.41563504453743
H           -0.55753962859197        4.18682570571194        3.84009804747229
H           -0.40227314408555        2.79529328790255        2.77097966399681
H           -1.96807556477797        3.19417032759072        3.47018616500454
H            0.79266018998353        3.21737972753730        0.88113522191839
H            2.89657548831215        4.11012547396358        0.02369881147291
H            3.51374709909349        9.47247415169011       -1.89526310559082
H            2.01750848697051       11.38240113401439       -2.36819667249708
H            1.05678800474972       12.67071957615611       -0.50520448193006
H            1.59159125718431       12.06042922121364        1.81691479355682
H            3.09112896518249       10.14898551581279        2.26738955434742
H            3.41134775401438        6.36473981622027        2.57926891765334
H            3.89771144015185        6.04240377314689        4.97610103935628
H            5.57759505360723        7.46087679259413        6.08122380428888
H            6.76529028617969        9.18915518061080        4.79420292477862
H            6.26636162017718        9.49149599676529        2.39436300024622
H            7.12425573760263        9.80587170422717       -0.02177186970663
H            8.84686714484418        9.24490536356901       -1.70724524373792
H            8.56860790938240        7.26416818897914       -3.13367769060115
H            6.58052475816329        5.83102549978643       -2.89310008943434
H            2.42157909716555        5.72180996619546       -2.74772652267437
H            1.91297476135422        3.65293899623587       -3.95610823172810
