136
 energy: -26.902709435960 gnorm: 0.000438139811 xtb: 6.5.0 (97a52f5)
C            0.38504170552027        0.58137348417705       -0.65027726394784
C            1.91782529606691        0.52421828908452       -0.51374031867537
C            2.47038575267450        1.95917080578288       -0.62075829894336
C            2.29576975172012       -0.03803233890843        0.86960662300146
C            2.49095604056994       -0.39066219082326       -1.60717502263074
C            2.11591569221960       -1.72764984166689       -1.65257198257145
C            2.62121313171314       -2.57913564962907       -2.60709128062741
C            3.53487776676206       -2.12851488864088       -3.55631753783079
C            4.03826871084720       -3.03320293366678       -4.61035286411949
C            5.31315298353517       -3.08174693363149       -5.10772280880006
C            6.50767329394604       -2.40998853999075       -4.65558698081381
C            6.63196028242306       -1.89087129452177       -3.36132245979843
C            7.77365832689197       -1.24784835533762       -2.96196621295348
C            8.86407356626065       -1.10353647100001       -3.82193284712109
N           10.01901207292051       -0.36332964164696       -3.42591016693848
C           11.02685792680747        0.01907027440082       -4.37519909759831
C           11.75453788436494       -0.92820386882104       -5.09051476506179
C           12.71993101520147       -0.53471987914481       -5.98645892706531
C           12.97811090999065        0.80803438037087       -6.17145022345609
C           12.27965194038885        1.75640720066906       -5.44933844576563
C           11.30817900791716        1.38330096564923       -4.53583598565023
C           10.49797660944538        2.38742091486327       -3.69625619743836
C           11.22155508857994        3.74471835852282       -3.60492026214312
C            9.12826840859734        2.59283370603974       -4.36450072868596
C           10.27654033706851        1.78333756884811       -2.29807310008706
C           10.28354888098682        2.52939755301311       -1.13149155713828
C           10.08605129802907        1.92963701977588        0.09732848476741
C            9.88467736463998        0.56721102078774        0.18036495676543
C            9.86531126343430       -0.19216511124171       -0.96532643469707
C           10.03599045529746        0.40472041993548       -2.21171557830834
C            8.74701022128480       -1.63081760253134       -5.11008103088102
C            7.60656536787518       -2.27435351922030       -5.51315702561192
S            5.37187306599835       -4.18942345745285       -6.54617084761300
O            6.14736200787710       -5.44910828542886       -6.23010054630129
O            5.65014081377566       -3.36257102739676       -7.77975669704568
C            3.61955978311084       -4.58928642841506       -6.37557613238896
C            3.12355116327521       -3.90728928778597       -5.31384349485312
S            1.44641956451717       -4.28888342310715       -5.08454092377227
C            1.42260998969151       -5.39111319233279       -6.44307543535626
C            0.23990503834315       -6.16489997014272       -6.79087560265831
C           -1.03627297376447       -5.67598535243539       -6.50038709935654
C           -2.16027049549587       -6.39638740996336       -6.81641567432298
C           -2.07053803190796       -7.64095043146358       -7.44256362496538
N           -3.23906412307604       -8.40148690147727       -7.75752939987793
C           -3.15368168732681       -9.75243997459962       -8.23606040347991
C           -2.44917442124467      -10.07472676476831       -9.39300850210186
C           -2.39591106820203      -11.37399006200658       -9.83879195728946
C           -3.05450467425239      -12.36607627686187       -9.14196540139698
C           -3.77711720001578      -12.05481660288165       -8.00635933302130
C           -3.85065188068299      -10.75195430153602       -7.54270107687433
C           -4.64118831869225      -10.33797437039599       -6.28869247563042
C           -5.71103601331455      -11.38952749027170       -5.93608862929015
C           -3.66013445844701      -10.20615803674781       -5.11205437923306
C           -5.28179476912652       -8.96344019838624       -6.55121480402536
C           -6.53763210850117       -8.60449111452370       -6.09098819186844
C           -7.06994596060956       -7.36125843185321       -6.37284578162183
C           -6.35545187363535       -6.45660938610165       -7.13085951766508
C           -5.10306361289405       -6.78797598285169       -7.59061313106608
C           -4.54243710891893       -8.02566618411113       -7.28623068781139
C           -0.79415281805290       -8.15230437696114       -7.68280697880911
C            0.33153217461575       -7.43662975191643       -7.36519604568914
C            2.67353682152797       -5.41174266893188       -7.05856453254004
C            3.02640144603267       -6.14918138525549       -8.28997750178969
C            2.14570796313320       -6.23552234251235       -9.36367899281389
C            2.48569573817482       -6.93033477776822      -10.50223308555146
C            3.71956470059688       -7.55630723197035      -10.62359231392548
C            4.06159149600822       -8.32131877911549      -11.91143025008285
C            3.00316791129434       -9.41440534567832      -12.15397964721970
C            4.07333507485296       -7.33745610351920      -13.09574216108553
C            5.44391658006043       -8.99764773685354      -11.82400144931682
C            4.61201201880130       -7.43907112172361       -9.56480336112505
C            4.27657349592725       -6.74533448948302       -8.42427731179697
C            3.88417746324070       -0.78018039461257       -3.53385553441051
C            3.38014631239272        0.06645630056589       -2.57277298326380
H           -0.04964305687898        1.23661500122239        0.10405907886352
H           -0.06041632819233       -0.40526361509616       -0.53092810764807
H            0.10030134777419        0.96022184754564       -1.63140549253716
H            2.06033028953574        2.59065728904781        0.16700212528189
H            2.20579875380338        2.41176361214442       -1.57591790604503
H            3.55533371070536        1.97019053773204       -0.52025034226862
H            1.92141315278398        0.60340385240281        1.66693383950012
H            3.37817147331941       -0.10853978695129        0.97344802480230
H            1.87979805672976       -1.03313535664881        1.02051264408573
H            1.41824269384406       -2.10481399718756       -0.92524647738090
H            2.31634461619487       -3.61094115964978       -2.62864439186457
H            5.82127023537005       -2.01889948608754       -2.66671449533257
H            7.82165852359052       -0.82380355312302       -1.97630888684039
H           11.56491784492929       -1.97298057264509       -4.91503985654380
H           13.27570137290906       -1.27350920961068       -6.54047303783890
H           13.73252575644196        1.11748613937759       -6.87622465834644
H           12.49914360791949        2.79748285486091       -5.60382312727790
H           11.36427435448277        4.18259534164408       -4.59158353377898
H           12.19717957677056        3.63276928132949       -3.13329689329922
H           10.64084726530332        4.46295340570425       -3.02825124978136
H            9.24288536964820        2.99782014177153       -5.36932913608858
H            8.51235998774956        3.28039193896486       -3.78585091404880
H            8.59393980198044        1.64663929501694       -4.44233653660009
H           10.44439365801678        3.59152244833619       -1.17523043839176
H           10.09746081426065        2.52646002357853        0.99472961084011
H            9.74644955161360        0.09883437718777        1.14119514007265
H            9.73970284106538       -1.25967839897967       -0.91127428204207
H            9.55383120057394       -1.50117875416778       -5.80718439876035
H            7.52346705450874       -2.66180184406541       -6.51457949465001
H           -1.12391643018255       -4.71669349477879       -6.02084057018183
H           -3.12624238902714       -6.00712883638414       -6.55360696863425
H           -1.96624045031801       -9.28764138446390       -9.94570567283803
H           -1.84478347998079      -11.61623819206998      -10.73280416939637
H           -3.01156750757212      -13.38550037506809       -9.48934437708015
H           -4.28823114313966      -12.84099210044365       -7.48049498048832
H           -5.25898798540860      -12.35918387730186       -5.73334308418728
H           -6.42408254255743      -11.50562575055615       -6.75158849628039
H           -6.25849820162700      -11.10898959295434       -5.03761337837822
H           -3.16532860872082      -11.15562768770356       -4.91047412472734
H           -4.17829946717333       -9.89068156620120       -4.20713433628021
H           -2.89168902554153       -9.46683147506390       -5.33525186576020
H           -7.11332863108753       -9.29918673761264       -5.50629565396123
H           -8.05012376539757       -7.10062834018397       -6.00813568750460
H           -6.77988669483175       -5.49409614305864       -7.36562040770813
H           -4.55298334524362       -6.10501317182491       -8.21439738889295
H           -0.69224743930864       -9.13808897924866       -8.09776553281843
H            1.30481705722615       -7.86045308047260       -7.54030654895426
H            1.18911606237951       -5.74688543154675       -9.29366255422291
H            1.78336445352823       -6.98569968052081      -11.31567929035649
H            2.01093131325090       -8.98539913932854      -12.28582142653033
H            2.96085416101464      -10.10281174929604      -11.31042292750802
H            3.23653036110801       -9.99108315318217      -13.04859782781879
H            3.10039134181947       -6.86606807993245      -13.22746372644959
H            4.32613685511390       -7.84757395675459      -14.02478388831850
H            4.80715479313563       -6.54871233237316      -12.93263297466315
H            5.48403393665666       -9.70071235712567      -10.99252896971520
H            6.23486522251977       -8.25993835464126      -11.69278354560259
H            5.66104058892302       -9.55249968993482      -12.73638080723829
H            5.58810971495948       -7.88525142711837       -9.63220849511321
H            4.99709030379840       -6.62276036972642       -7.63284515988608
H            4.55516251387775       -0.40509940038795       -4.28766854432882
H            3.68318952133410        1.09821190273300       -2.57814618301585
