146
 energy: -27.701831014045 gnorm: 0.000604519994 xtb: 6.5.0 (97a52f5)
C            1.68657167886850        0.33226262341519       -0.37111998231990
C            3.19810017917381        0.36738835857237       -0.07863036411045
C            3.89482644636274       -0.75549270097368       -0.86602907787369
C            3.73222373174251        1.72974549512733       -0.56452772721746
C            3.46904061406139        0.15563816486547        1.42162819993437
C            2.91109563344152       -0.93024715256209        2.08479842666182
C            3.20812365076527       -1.19333532811497        3.40211510108219
C            4.07363005356478       -0.37365990519923        4.11789348208138
N            4.35085114678066       -0.63152649297982        5.50294591548213
C            4.44861137548973       -1.98910733068994        5.95804390193823
C            3.98247799961673       -2.34558159835627        7.21757898490121
C            4.04388073500412       -3.64868202724165        7.64994254885949
C            4.58035836602049       -4.64836368274222        6.84923074597493
C            4.60057258268671       -6.09766712178234        7.35805312798464
C            5.39126943518547       -6.16559869391678        8.67796320131699
C            3.15322186346961       -6.56831959269505        7.59375786101240
C            5.26455753169132       -7.04959499919062        6.34473889047930
C            5.05691857755286       -4.28688312886985        5.59420740138381
C            4.99377758194111       -2.98402001506532        5.15562658503495
C            4.55355744411258        0.42847669714752        6.44974945640287
C            5.58691646602390        0.31579392673524        7.36411834267695
C            5.88574997370353        1.31283907447306        8.29059381651993
C            6.94180814849183        1.08677541582369        9.27467917758761
C            6.79253400833500        1.24169383427470       10.62145413523992
C            5.52071216397538        1.45023785399045       11.15474083339921
N            4.46043212317440        1.62829171947722       11.59672598371862
C            7.95099354282872        1.34951723957139       11.51426847491523
C            7.84269575731100        2.07849158260912       12.69907954422338
C            8.95317507830607        2.38352440302335       13.45146069269575
C            8.84558058840780        3.40248998573670       14.57119051421073
F            9.05973141744568        4.62147012032157       14.03407759735179
F            7.60877163877015        3.33910211518559       15.10380196334385
F            9.78161555452690        3.13148145862613       15.50276972898044
C           10.19218816872693        1.91548857809331       13.06351411915053
C           10.32303667420623        1.17640089680468       11.90609813015933
C           11.69749312119301        0.77627533942261       11.40265548981928
F           12.59995265248177        1.65193325879544       11.88981086134946
F           11.97116112614189       -0.47568673469331       11.81976307484755
F           11.68464687735044        0.83390063892039       10.05457292588999
C            9.21524979495453        0.89463243308897       11.14240293583587
C            5.14931645849280        2.53081692189850        8.23909733174205
N            5.46942336451517        3.66872764142476        9.05012082269923
C            6.81673496955639        4.04002664958664        9.38169035702235
C            7.11243607626040        4.53241773024837       10.64706987230715
C            8.40684195021574        4.83284554244863       11.00308925049441
C            9.45516837745699        4.68056679894996       10.10318781460492
C           10.90262516435389        5.06086660807756       10.45908066547424
C           11.25845649670320        6.37518796719550        9.74367887811663
C           11.08356638581805        5.26046562543430       11.97777863872549
C           11.87134035538114        3.95106844714867       10.00367172471729
C            9.14725618340926        4.22304506573940        8.82735084265826
C            7.85738663714880        3.89949489362431        8.47234178306844
C            4.40356869561162        4.56165420009936        9.43605439680433
C            4.36770897929556        5.87059760950457        8.97138285290475
C            3.30771833336667        6.69175130945932        9.27840776366920
C            2.24969714848101        6.24458819574295       10.06081619878466
C            1.07745166891621        7.18855451302477       10.36951661684034
C            1.60515524627789        8.42954072606483       11.11268855528462
C            0.40987186936726        7.61670788318268        9.04952678242975
C            0.01402144468987        6.50839926524192       11.25368765344209
C            2.30177809036454        4.94029656624871       10.53819097549107
C            3.35890051076843        4.11632770004359       10.23637606194827
C            4.10032431124869        2.63177671480037        7.34229950009137
C            3.74994795922058        1.60375533361473        6.47035224743445
C            2.61598474506975        1.78820290178632        5.57230828287506
C            1.61279202239914        0.88740222654704        5.36184618376076
C            1.48089811922965       -0.23585562449444        6.17891731360116
N            1.34507514526593       -1.18224397141283        6.84013353444737
C            0.73503618409775        0.97720242901113        4.19116817203284
C            0.09008591444538       -0.17010767230399        3.72679135809195
C           -0.56505297816928       -0.17984653776936        2.51744983669373
C           -0.98562002972481       -1.50241008446136        1.90358673359489
F            0.07728000612359       -1.99103924103324        1.23061738484917
F           -1.34397635534865       -2.34933366163962        2.88896643086947
F           -2.01422395491622       -1.28818737446677        1.05939111897940
C           -0.63712639019155        0.97760240142149        1.76915694974606
C           -0.01121027050251        2.12732540763320        2.20751902154638
C            0.12681954682599        3.32801309845291        1.28983793844062
F            1.35245921370386        3.27076693842688        0.72968738946568
F           -0.82353947105562        3.26524451503964        0.33645463514772
F           -0.00044456494319        4.45336449648377        2.02158054261882
C            0.66357169395216        2.12668563275664        3.40503136716621
C            4.63011330107371        0.71707038620237        3.46187512750541
C            4.33459773420771        0.97216673411933        2.14172070946342
H            1.49426723264505        0.43758310952400       -1.43784035020104
H            1.18999970762435        1.15881669486894        0.13073087569432
H            1.22595259788701       -0.59806145731378       -0.04428359156813
H            3.74113453662030       -0.63528415595839       -1.93749967540680
H            3.50594178275623       -1.73137369968011       -0.57896574936774
H            4.96706835686309       -0.75244816630924       -0.67531442238443
H            3.49355034389684        1.88442001041933       -1.61584983136453
H            4.81430300602049        1.79238353963528       -0.46215721603859
H            3.27862599561240        2.54589020162972       -0.00257323040120
H            2.20936972835579       -1.56395776535708        1.57169914437283
H            2.74108658313209       -2.01983369082450        3.90862967751646
H            3.51980044522086       -1.59028065979578        7.82939750696186
H            3.65208979444464       -3.89954316596426        8.61991210283971
H            4.92893160179647       -5.55345702901813        9.45022163117063
H            6.41052687078162       -5.80963522166191        8.53469202268600
H            5.44046831997018       -7.18784008680999        9.05046656645671
H            2.65459999996270       -5.95515672276486        8.34243131098309
H            3.12950395114306       -7.60103854770071        7.93874450583170
H            2.57402537930084       -6.50612863652739        6.67347963982311
H            6.29491039136869       -6.75626935302813        6.14867978422533
H            4.72081107885620       -7.05972392970640        5.40119907283739
H            5.27914338125565       -8.06982531790321        6.72587768869544
H            5.47867417282210       -5.03339899552229        4.94577388458003
H            5.36902917176589       -2.71850505583414        4.18303358595726
H            6.17281695051188       -0.58457890562864        7.36946651999781
H            7.92123289902333        0.85205702003794        8.89186608238002
H            6.88711292925041        2.47098418615361       13.00102906592701
H           11.06609797503300        2.16141621299755       13.64332542886745
H            9.35437010059388        0.33743605656495       10.23432212973800
H            6.31407823346468        4.63089305495073       11.36169705635548
H            8.60632230757084        5.13999874593353       12.01397417979915
H           10.58996623416907        7.17652944265301       10.05536542489891
H           11.17085021445631        6.26818053833486        8.66361052748216
H           12.27960083947017        6.67892378738404        9.97001460824682
H           10.48815973682538        6.09468690531071       12.34524439551804
H           12.12426827289677        5.46984346137136       12.22120374410652
H           10.79103055199393        4.36954200861541       12.52922003067294
H           11.87974289700498        3.83999088202236        8.92141207743252
H           11.59142381266700        2.99250596050161       10.43336195252612
H           12.89103768234375        4.16641217167158       10.31978354122224
H            9.93247359341567        4.12117965462228        8.09967592096419
H            7.63733215030477        3.53144350359184        7.48582260546944
H            5.17468921501542        6.22303099893648        8.35342403461542
H            3.29490288145235        7.69871557672140        8.90019106784767
H            2.32135658827213        8.98044669541098       10.50567387572667
H            2.10254459562999        8.14092888910728       12.03764613238003
H            0.79146570607841        9.10820141903634       11.36471464327849
H            1.10787774162598        8.15095894388034        8.40739495857364
H           -0.43905514768931        8.27281512656291        9.23661720305924
H            0.04970135737072        6.74738041868220        8.50105890223303
H            0.43601455197168        6.20263714957894       12.21002149176818
H           -0.40249621609658        5.63063522875306       10.76155998848210
H           -0.80948433051939        7.19044210326473       11.46098587760512
H            1.51153562055974        4.56283660764107       11.16174012030696
H            3.41675087824132        3.12803190083049       10.65538499945235
H            3.52530741530987        3.53868731093760        7.32378997327520
H            2.62062102590570        2.69058014774313        4.98435581953477
H            0.16223800095677       -1.08830042829810        4.28396616763910
H           -1.14236536692133        0.96952637465297        0.81764874796137
H            1.16176163841023        3.03127704716074        3.70059926644303
H            5.29908584107293        1.36067824840558        4.00540025398857
H            4.78592839972137        1.82358603626513        1.66555361168796
