130
 energy: -24.236473930336 gnorm: 0.000162732897 xtb: 6.5.0 (97a52f5)
C           -0.18814570496431        2.32270160246591        0.68280528078717
C            1.17958776073887        1.75960296243221        0.25068071958812
C            2.16524071824517        1.92439834015006        1.42217723517203
C            1.00675578420012        0.26428696894449       -0.07509252515882
C            1.73282212540378        2.48892215107911       -0.98344907640153
C            2.95235902542802        2.09734942999926       -1.52320526035538
C            3.48163012478580        2.72860974673405       -2.62553134585458
C            2.80729378084552        3.78210974105624       -3.23036695379773
N            3.36834590660182        4.46107090437380       -4.36264899552105
C            4.10210465589555        3.71706844421323       -5.35140999649900
C            5.23090621377234        4.26862452367448       -5.94589055299472
C            5.96655065756924        3.55204638626956       -6.86205647243204
C            5.60107074863599        2.26287268791537       -7.23136254829997
C            6.50356842519071        1.45657249799200       -8.17991259394483
C            6.78312974539484        2.26337969782013       -9.46202305426407
C            7.83348795048495        1.15962898278923       -7.46368940097208
C            5.85547152435385        0.11837993211326       -8.58558495902379
C            4.45714329671863        1.72409108232005       -6.65046352739025
C            3.72035531429867        2.43552828073016       -5.72911824854051
C            3.16897969805786        5.86295715183731       -4.57578034523754
C            2.79268204077494        6.28129071461910       -5.84051962703651
C            2.64137825232811        7.61209367314835       -6.20070399938380
N            2.18141563212396        7.90487283315066       -7.51915698219952
C            2.30559431598708        6.89338883614181       -8.53621384101614
C            3.49232054767703        6.18869440949035       -8.70564222267443
C            3.55478199888035        5.11451240806431       -9.56330542858496
C            2.44699772182894        4.71571916942002      -10.30246381511722
C            2.53016709829376        3.45903796382184      -11.18169891802884
C            3.71674954008256        3.58401790689765      -12.15582394757213
C            2.72324027614099        2.23246197255779      -10.27135442598166
C            1.24848928838997        3.25398399699977      -12.01276371998167
C            1.27358812847870        5.44825512483645      -10.15965991548962
C            1.20304703626507        6.51706504488574       -9.29509683105197
C            1.31470318025766        9.01883561737774       -7.79622577333141
C            0.28725511415819        9.36593577775568       -6.92641456038565
C           -0.51876979335411       10.45083632024251       -7.18836068220895
C           -0.33517199329092       11.22397977381933       -8.33010127100684
C           -1.20142747846744       12.45362320778128       -8.64393817824818
C           -1.93923436516693       12.23032612255167       -9.97673347412717
C           -2.24951218226894       12.71095041148673       -7.54401725575388
C           -0.29900822151284       13.69710071625589       -8.75254419985681
C            0.67961427633822       10.85704898663229       -9.20642772118127
C            1.48901260692536        9.77425113658089       -8.94935469833839
C            2.93024363514093        8.61221372031735       -5.22923862749014
C            2.90922494292759       10.00008847211408       -5.52907687063136
C            3.15877857310881       10.94286606715975       -4.58651393810811
C            3.47751784915243       10.57538059014871       -3.24950897704102
C            3.72820415997493       11.52514007422824       -2.25402219016073
C            4.06164908824338       11.16190411879663       -0.95702774214960
C            4.31443671807237       12.25774232033437        0.09090009418282
C            4.66116109275039       11.66332252320680        1.46989665455303
C            5.49102864018386       13.13904287336044       -0.36737188836734
C            3.04759120110984       13.12065017348952        0.24063845755808
C            4.15900215294980        9.81053487569774       -0.65368475275427
C            3.91937155076083        8.81838456653746       -1.61057087868096
C            4.03888748999826        7.43207542877792       -1.31005788232325
C            3.80132673440527        6.49059888947548       -2.25686935715122
C            3.40453333225744        6.84011300195875       -3.57308984515458
C            3.28844726005603        8.21197563137731       -3.91409852113470
C            3.55883645375479        9.20157157886623       -2.92418645140977
C            1.58823713462385        4.17999035568359       -2.69519758850502
C            1.06239862984127        3.54442018610955       -1.59280138135438
H           -0.56744722151806        1.78967519901361        1.55470463363079
H           -0.92487897513515        2.21774873762832       -0.11346223255967
H           -0.11257046895873        3.37678899107472        0.94918691331513
H            1.79049018236272        1.43245911045420        2.31969980681655
H            2.31582976976451        2.97889873890038        1.65294956949867
H            3.13681378062054        1.49169226100158        1.18638352699140
H            0.59493148188438       -0.27566511654259        0.77745729266579
H            1.95853544331701       -0.19860561606821       -0.33297928191367
H            0.32982293372996        0.12994395991321       -0.91864134573529
H            3.49485292080849        1.28674895888662       -1.06826343032947
H            4.43262166402444        2.42253856552157       -3.02576900277612
H            5.53317761822839        5.26101385066766       -5.65930473122463
H            6.85437082905845        3.99097187009932       -7.28288410376959
H            7.28754349932883        3.20346153132813       -9.24348118824564
H            5.85641158303399        2.49253828773051       -9.98412307968053
H            7.41896536027765        1.69940842080480      -10.14444014100695
H            8.34748225244862        2.08129772792479       -7.19237817040265
H            8.50012716001709        0.57895525581266       -8.10115397016999
H            7.66043553229584        0.59208936156853       -6.54944149557777
H            4.89247505971380        0.27865168312978       -9.06952684665484
H            5.70437089823170       -0.52516558945619       -7.71924284214407
H            6.49184025565037       -0.42209603792042       -9.28636641343376
H            4.14201624559989        0.72955703290296       -6.91176671554851
H            2.83902345648034        2.00568028140316       -5.28561781880856
H            2.59570494852273        5.52096233454891       -6.57159018018690
H            4.35327205335195        6.47513460205894       -8.12651011516758
H            4.47175229564443        4.55731582567973       -9.64107327414828
H            4.66258984139375        3.68309460161493      -11.62621543875709
H            3.59878725525552        4.45955122394259      -12.79406674609831
H            3.78739428340338        2.70616174039691      -12.79801363537220
H            3.61019814155225        2.34047801732993       -9.64964148890847
H            2.82929832526856        1.32017422442827      -10.85811986655630
H            1.86933690625145        2.10942025940365       -9.60529972872483
H            1.05691156828798        4.11332099964579      -12.65523722087643
H            0.38170010160930        3.10159841029848      -11.37004152655357
H            1.33927230830515        2.37590760248412      -12.65224455677843
H            0.39608440240337        5.16950397530757      -10.71552189753827
H            0.27920972948527        7.05402754593792       -9.16719001416913
H            0.14042673198597        8.77645192657222       -6.03798911070896
H           -1.29795688707429       10.70067797395010       -6.49048177993447
H           -2.56900842590767       11.34238002449568       -9.92395275826221
H           -1.23846647669202       12.09491837596616      -10.79975450302137
H           -2.57553398742392       13.08179511275413      -10.21782812320846
H           -2.92941104953919       11.86515566230232       -7.44351934836320
H           -2.85012966548756       13.58932618370631       -7.78045858437153
H           -1.77149488825371       12.88859213058112       -6.58076365945724
H            0.42614970100873       13.59229316721533       -9.55867061865473
H            0.25189556466708       13.85484020859227       -7.82540768109164
H           -0.88931404057101       14.59164537904510       -8.95079849248600
H            0.83782562207777       11.43327813059013      -10.10155479354483
H            2.27670757954462        9.50368226523530       -9.63106700348805
H            2.69630585974509       10.30592114581680       -6.53643841893338
H            3.12387035544913       11.98819979325379       -4.84116412016320
H            3.65865684416973       12.56623496019161       -2.51193154707479
H            5.56726161816622       11.05973394360944        1.42097339541390
H            3.84882750868886       11.04068780571219        1.84440593786973
H            4.83245234890519       12.45462347947691        2.19971375684781
H            6.39179224919351       12.53992190916121       -0.49947653549180
H            5.70638170951316       13.91502044365058        0.36708325274853
H            5.27351467544434       13.62952111372328       -1.31539843245029
H            2.19884334976826       12.50838248937898        0.54489896917699
H            2.78760235894490       13.61028979797723       -0.69705572450558
H            3.19068200216491       13.89661626517318        0.99253010246672
H            4.42587774180599        9.49844516810298        0.33875899076513
H            4.33005949169538        7.14114078642406       -0.31543685589466
H            3.91457613701055        5.44995019855162       -2.01472040256958
H            1.06264858955406        4.99746484098346       -3.15756939647634
H            0.11777654778928        3.87759140178856       -1.20125396245271
