37
 energy: -6.100833430284 gnorm: 0.000490972522 xtb: 6.5.0 (97a52f5)
C            1.00110926211845       -0.05645544527686        0.08687539999527
C            2.53917933284948        0.03594983630239        0.09523445474693
C            3.09238289108937       -1.22680446962319        0.78372470795174
C            3.06313670647238        0.07678391432048       -1.35130864094520
C            2.97529013244681        1.31733813243944        0.82246688910850
C            3.88266358077551        1.31036624173803        1.87090960750937
C            4.26117746334685        2.48173894750813        2.47991256291207
C            3.75120970096219        3.71683406733024        2.07078904195357
O            4.17502594695823        4.86261466506019        2.72103091459447
C            2.82626678516055        3.74666797714014        1.00688112013919
C            2.19061865365805        5.03647604300085        0.46229018861165
C            2.59879583011393        5.21573544390406       -1.01183454759690
C            0.65694935013980        4.92923579146019        0.56694787997926
C            2.63066144807692        6.28869709932761        1.23620909875885
C            2.47468835478784        2.54569367744526        0.41256454391850
H            0.66922192513947       -0.97936292443816       -0.38853634509201
H            0.55382322156986        0.77399362580486       -0.45773120344755
H            0.60920045156305       -0.04110806170025        1.10370592745246
H            2.74648744783268       -2.12694115507213        0.27571955964454
H            2.76075365787940       -1.28391981521523        1.82036146747967
H            4.18190205163498       -1.23987527648850        0.76670659767811
H            2.77683831876756       -0.82261841724376       -1.89617746877945
H            4.15057262527595        0.14826042754749       -1.36466803538408
H            2.66518190780372        0.93612868855299       -1.89010690332082
H            4.30128514311606        0.38116579044577        2.21487900227370
H            4.96817149562939        2.45752787953840        3.29054099934007
H            4.81789269720229        4.62480447771266        3.42583693743381
H            2.26004167441091        4.38020362376129       -1.62296402641691
H            3.68266788651672        5.28029650203138       -1.10451106092762
H            2.16942964206252        6.12717758427425       -1.42733412605716
H            0.27286477304053        4.09805704682821       -0.02275875554260
H            0.17719574946988        5.83942472981924        0.20758280802938
H            0.35328832116525        4.77411750274225        1.60196986778590
H            3.71108685583591        6.41556452029683        1.17807379838223
H            2.36370726724981        6.20240876960011        2.28890861251458
H            2.16066755488586        7.18753148275426        0.83760244560507
H            1.78557389299225        2.56387107637047       -0.41154332028850
