144
 energy: -28.647437682708 gnorm: 0.000602494289 xtb: 6.5.0 (97a52f5)
C            1.78104474456124       -0.05369724574619       -0.51790688434466
C            3.21138901865053       -0.03650021127695        0.05224001067152
C            4.22070982884608       -0.34707856505395       -1.06858418217450
C            3.50316454163655        1.37782351535819        0.58983380123046
C            3.32949307227605       -1.10248386963967        1.15211963024647
C            3.65420114726348       -0.77245004582524        2.48164213784529
C            3.75316600352490       -1.72457337467290        3.46541757481078
C            3.52293548626269       -3.05814525107052        3.14024138410047
C            3.20296717624594       -3.40823633470842        1.82040303774813
C            3.10622936976987       -2.42818278494133        0.83215490672489
C            3.06809804048431       -4.84394325542026        1.77734378514887
C            2.78064004834235       -5.72947599939926        0.73823289981254
C            2.73806355985305       -7.08890828211053        0.98363690630435
C            2.41494253027350       -8.04865252334848       -0.17188417084579
C            1.01995069715230       -7.71591312399602       -0.73293056103328
C            3.47197349275050       -7.88516005008107       -1.27974583517994
C            2.41567339645852       -9.52004569570455        0.28595908205035
C            2.99046938769393       -7.54960042304559        2.29021538557271
C            3.27626634114741       -6.69231227111323        3.32416951874552
C            3.31789522416238       -5.32429533750073        3.07069885370582
N            3.58816566509173       -4.23216751264406        3.92045554234433
C            4.07460617311073       -4.33987434968844        5.26727238064259
C            5.14766948162927       -5.18015247991662        5.50595505531338
C            5.73860882767097       -5.27900827485468        6.75737237500571
N            6.97503952563498       -5.98191099866006        6.93518893281302
C            7.82946551729408       -5.58742877342184        8.02328738207696
C            7.51329059344683       -5.86923190739321        9.34902719951494
C            8.31521324081814       -5.40968335492184       10.36775663463916
C            9.44649824820682       -4.67318742387216       10.07692766819798
C            9.77973162492652       -4.40516904309975        8.76379767178388
C            8.98861503270658       -4.86054693516008        7.72463766678713
C            9.28332970952557       -4.53947427862915        6.24949758068635
C            8.44713706469222       -3.31185319888001        5.85172906475538
C            8.34758893039853       -2.22388312596044        6.70542214653744
C            7.58569844817668       -1.12390847925527        6.36947858529271
C            6.91149192025812       -1.09261137764248        5.16754185099988
C            7.01143246781090       -2.15874483139266        4.29960688040087
C            7.77759699108575       -3.25409123897462        4.63777967541786
C           10.78151865397637       -4.27986284702698        6.05029168000669
C           11.69947180921260       -5.24905903345803        6.42507152928914
C           13.05294916133618       -5.04942745227630        6.24892325879720
C           13.50971853973580       -3.87475745789672        5.68958580191892
C           12.60929138169550       -2.90358323655725        5.30503960185828
C           11.25647796711592       -3.10699397384857        5.48275988801468
C            8.84705167704708       -5.74353687450383        5.39741671375013
C            9.50533853386685       -6.11997800669671        4.24091639352427
C            9.02961611412213       -7.15645466235698        3.46179293940599
C            7.88215160164468       -7.83106935029370        3.83026761331199
C            7.21067454474869       -7.46993332676587        4.97510891999283
C            7.67968834567505       -6.42428062476740        5.76419281462748
C            5.20280279046736       -4.51760251166112        7.78484011324440
C            4.12897797054014       -3.66826108053745        7.58975080255984
N            3.72510132254407       -2.83612504691411        8.68832747338376
C            2.43886962019553       -2.68664908599772        9.24685558669030
C            1.20736224867644       -3.21788186107519        8.87557640617209
C            0.09669367564453       -2.90508778044378        9.61947439389999
C            0.16488142221017       -2.07075080334490       10.75150533457511
C           -1.08163066463516       -1.70991203455154       11.57415654534486
C           -0.89396140301638       -2.19574161515284       13.02314037748313
C           -1.27346844235962       -0.18202017270348       11.55953487845131
C           -2.35529715136329       -2.36348251014079       11.00367410432886
C            1.39245529679143       -1.55828641331513       11.12621534070021
C            2.53123388210859       -1.86301855222704       10.37960011236179
C            3.91911468566607       -1.49799016471803       10.53593911542429
C            4.59314473731424       -0.72772753954243       11.48511244925767
C            5.96268875179133       -0.56096015387599       11.39267088060209
C            6.69114605173575        0.28107785941841       12.45116781253033
C            6.13341402924536        1.71606169733186       12.43132317646992
C            6.46670834649032       -0.34404591432395       13.84044364450932
C            8.20848254612430        0.34557090491514       12.18828264208303
C            6.64994503605854       -1.17309554457382       10.32726746913337
C            6.00251800438633       -1.93247059265382        9.38573653722456
C            4.62582989155556       -2.10561271174910        9.48938467114228
C            3.54179602001664       -3.57257286436773        6.31710199625304
C            2.47214815206418       -2.70429854359756        6.08995861608757
N            1.58438398627995       -1.97783281609047        5.90010763213456
H            1.65915020134688        0.70577911070318       -1.28982568307948
H            1.05201107685798        0.14285011167220        0.26777115083185
H            1.54264364071717       -1.01991007899576       -0.96059229990631
H            4.17268093814355        0.40480049862641       -1.85596044315404
H            4.02317316893500       -1.31713360121015       -1.52285323682439
H            5.23765469660273       -0.36172670356260       -0.67726130212222
H            3.41645056975474        2.11850275271301       -0.20491359227879
H            4.51356953590831        1.44401692136794        0.99252054700304
H            2.79787926448622        1.65290652947596        1.37356800183950
H            3.82635369784681        0.25580479266392        2.74457256237247
H            3.98980530614563       -1.46012285587065        4.48042476129637
H            2.86073241733630       -2.71861802659299       -0.17238629579654
H            2.59562125970349       -5.34127600609275       -0.24603318181321
H            0.98125730742702       -6.69918131462238       -1.12167420227079
H            0.26147206158651       -7.80565299071086        0.04431912969594
H            0.75382460561701       -8.39308907346376       -1.54421260102910
H            3.47405178778936       -6.87199322029619       -1.67956324536653
H            3.27947308018019       -8.56868617741383       -2.10638643132201
H            4.46928419154633       -8.09464612942688       -0.89375300250841
H            1.66629801367961       -9.69128390085204        1.05831763194134
H            3.39076512132911       -9.80898427205652        0.67733106342062
H            2.18604499826408      -10.18383295214948       -0.54737564984481
H            2.95859171469195       -8.60504780219311        2.49318036446296
H            3.45997307924213       -7.05507048449837        4.31980011067498
H            5.57090378096057       -5.71111131271118        4.67563048302451
H            6.63456059991821       -6.45291216252887        9.56228621588087
H            8.05940358313837       -5.62289287241509       11.39281318820205
H           10.07165018686106       -4.30875678581521       10.87571225122139
H           10.66054565353597       -3.82871862076780        8.54017348776769
H            8.87122932898407       -2.24685592927669        7.64495971586067
H            7.51159712947498       -0.29174650461020        7.05058140413286
H            6.30865852883347       -0.23775069903405        4.90770312456305
H            6.48213576547177       -2.14245175084226        3.36102150614597
H            7.84458957765259       -4.08636297043937        3.95984375473212
H           11.33871417222623       -6.16662866957591        6.85780224585364
H           13.75284589308302       -5.81253614103234        6.54825749087745
H           14.56704133084973       -3.71656680072894        5.55175928689437
H           12.96280578979871       -1.98528216251005        4.86503571993834
H           10.55770468107676       -2.34877797938550        5.17649844685999
H           10.39018622278224       -5.58483364253983        3.94327210496576
H            9.55316978820542       -7.43713214640295        2.56249514187124
H            7.51146331132006       -8.63847702967592        3.22004293760967
H            6.31618541785255       -7.98780409121132        5.27494806699719
H            5.66109114491421       -4.53614079400892        8.75375110162467
H            1.14076109355420       -3.84572665405494        8.00505967588652
H           -0.85271008109345       -3.30916563655381        9.31713475677223
H           -0.03440903488454       -1.71940439134792       13.49282230999440
H           -0.73535453416802       -3.27350971095695       13.04987956838623
H           -1.77206759309920       -1.96889194536839       13.62736490467689
H           -0.42173291518200        0.32878719688772       12.00662552066979
H           -2.16458979987794        0.10498486567952       12.11727635691947
H           -1.38260402352443        0.18144688583590       10.53805034531463
H           -2.27605664023304       -3.45023887554258       11.01037374046071
H           -2.54088313960072       -2.03451291323228        9.98155459181353
H           -3.22751077507592       -2.09406269625944       11.59899710258207
H            1.48451219582747       -0.92312168497514       11.98751617181719
H            4.03635245727028       -0.27453381194410       12.28404601510557
H            5.06995822122302        1.73107903694040       12.66626933271550
H            6.26501010937698        2.16616760536066       11.44768533003542
H            6.64484483535061        2.34351680486326       13.16092101701275
H            5.40924155975066       -0.36271998388343       14.10076308273076
H            6.98946031262685        0.22127977977972       14.61162983336540
H            6.83558922536030       -1.36917055521081       13.86491133740208
H            8.42069974851029        0.80207400968954       11.22182640599434
H            8.65299295753127       -0.64922877047528       12.20791845516480
H            8.70746734098166        0.94362263577645       12.95056864618496
H            7.71435516588678       -1.04759726720981       10.24096534838993
H            6.53491798530001       -2.38655857374714        8.57042147861777
