150
 energy: -29.594513841114 gnorm: 0.000827766312 xtb: 6.5.0 (97a52f5)
C            1.01854580122222       -0.56199928018292        1.25046391935464
C            2.50212239889959       -0.33629429375847        0.90569150095862
C            2.69149675751075        1.14376597023116        0.52159019710362
C            3.37186692079939       -0.63116512867455        2.14178763929910
C            2.90754802499456       -1.28130751902856       -0.23618438094442
C            3.39042001795278       -0.80257043013372       -1.46900264765095
C            3.75868156141418       -1.64746846980801       -2.48758010303886
C            3.64897387341578       -3.02175000013173       -2.29470923486777
C            3.17508116756768       -3.51893106016868       -1.07153454027393
C            2.80342987387291       -2.64669325180641       -0.04886922247418
C            3.18873132821945       -4.96011434090694       -1.15894636074829
C            2.80855155441168       -5.95741608585433       -0.26112751596610
C            2.90942057423716       -7.28706675600086       -0.62502497211865
C            2.47851561881348       -8.37218650151618        0.37387578176559
C            3.33299791063647       -8.25720021205269        1.64950976577779
C            0.99223681924615       -8.17700026794429        0.72606283465724
C            2.65763810009565       -9.78918244500160       -0.20430969385533
C            3.39815857743312       -7.60238260382498       -1.90702457748646
C            3.77727226351700       -6.63304675665823       -2.80309853285269
C            3.67834032127390       -5.29565119733007       -2.42967045829279
N            3.96522549279034       -4.10880065833599       -3.13734968240954
C            4.45067818224765       -4.03091845894731       -4.48649727692921
C            5.56119386635638       -4.77040429942982       -4.88279628150115
C            6.00458331102542       -4.72366857888553       -6.18172270949494
C            5.35020810882858       -3.93943425670397       -7.12891131642340
C            5.80724600724057       -3.91216795389386       -8.52311534530754
N            6.90197224750563       -4.59430742676412       -8.81825753666308
C            7.25686914351731       -4.54850862663378      -10.09210367435914
C            8.47188602370255       -5.27363557341384      -10.48122268990831
C            8.87612926639281       -5.32232276943118      -11.81352798090371
C           10.02217135915713       -5.98751586000346      -12.17473907516852
C           10.80527533323338       -6.62108929213190      -11.21435782419757
N           12.02170874408773       -7.28762579664394      -11.58624432182004
C           12.17148566628320       -8.24737679678764      -12.60995869952497
C           11.24413106370318       -8.81782440409437      -13.47733052134226
C           11.67319470621626       -9.75568741125915      -14.38466544303011
C           13.01955120080986      -10.15968999387952      -14.46426846529480
C           13.49828697181363      -11.21455382226886      -15.47383272054752
C           14.55844263960251      -10.58904604966471      -16.39880635432330
C           14.11194897953481      -12.40423160373095      -14.71260754508441
C           12.34269512406221      -11.74135983333957      -16.34620141011403
C           13.93595227993141       -9.59068376425495      -13.60016959220671
C           13.51742766007592       -8.63771008615788      -12.67206956881081
C           14.22861593100700       -7.89108613940097      -11.66127830509602
C           15.57331534384438       -7.85771439042195      -11.29293908188061
C           15.98954242299845       -7.01323615947859      -10.28093725570682
C           17.47713267041161       -6.98024977495682       -9.89767487414307
C           17.91193720534803       -8.37985846842416       -9.42602945127161
C           18.30864169856708       -6.56539143290874      -11.12564961960479
C           17.75584693934259       -5.97655016238826       -8.76232574517877
C           15.03369569368395       -6.20246363135523       -9.63985328409090
C           13.70565917103026       -6.22334629445020       -9.98955098031153
C           13.29201503697703       -7.07573709995610      -11.00936156556566
C           10.40169888564949       -6.57737751637398       -9.88309007184653
C            9.25273032384468       -5.91669531963229       -9.52349694601135
N            6.60591425240565       -3.89831665256076      -11.04325474061296
C            5.53124503935505       -3.24623093087874      -10.63180619761387
C            4.77043145901302       -2.49472987841974      -11.63947069026285
C            3.66058774613120       -1.73797578958877      -11.27067783523323
C            2.95465378901450       -1.02483996102531      -12.21924831214601
C            3.34965187448700       -1.06918181666211      -13.53429836328178
P            2.42521776284781       -0.10668524450964      -14.72831752061874
O            1.00411013465938        0.18496701476958      -14.17936532280253
C            3.28052140037192        1.43749379971384      -15.04411322641860
C            4.64932163867510        1.52622505791268      -14.94793127863840
C            5.27514659314013        2.72794718572460      -15.22447262871679
C            4.52341382805117        3.82610433067532      -15.59571728194088
C            3.14863233412132        3.72736656650384      -15.69075876023482
C            2.52503084856220        2.52294589218488      -15.41406366380364
C            2.30447199147421       -1.03943719265759      -16.25201023477874
C            1.22590419163781       -1.87407719981931      -16.41172013382969
C            1.11002264789814       -2.62630596683193      -17.56783023801559
C            2.07983021382057       -2.53283801556854      -18.54748508121180
C            3.16192301852559       -1.69073226225702      -18.37649312192918
C            3.27491763485724       -0.93952990897838      -17.22072848945115
C            4.43724853569889       -1.81551525487323      -13.92489252808022
C            5.14844607547205       -2.52575726066625      -12.97982150382986
N            5.08779361331711       -3.21328857808381       -9.38619005003076
C            4.24316269999428       -3.19466673318038       -6.72818394818154
C            3.80230038847602       -3.23707291441013       -5.42806631855708
H            0.69780933707899        0.10629073409255        2.04917941557729
H            0.83922470311072       -1.58445712939548        1.58001932261429
H            0.38879334507250       -0.37549479782458        0.38105350217956
H            2.39959082500866        1.79633855157906        1.34411677265755
H            2.07921242163425        1.40720415624021       -0.34032235839936
H            3.73358392507654        1.35799541922881        0.28625403957306
H            3.12008961133769        0.03747520678976        2.96453460464613
H            4.42805046370672       -0.49778967364170        1.90947656848074
H            3.23269812680224       -1.65376713832510        2.48977202562502
H            3.47896124997875        0.25757889514688       -1.62471836859436
H            4.13674070980364       -1.26926397082090       -3.42051236232522
H            2.44207636187614       -3.04938200170035        0.87894444741584
H            2.43476476388810       -5.67811519460050        0.70625897355384
H            3.20067332170139       -7.28837799221184        2.12914836712221
H            4.39088196465914       -8.37315546121312        1.41559712433656
H            3.06080914332870       -9.02636713431722        2.37180038182537
H            0.81928619864385       -7.20837995674500        1.19299127393397
H            0.65111878756993       -8.94612136353526        1.41850591463901
H            0.37437642642964       -8.23145991263193       -0.16980507978019
H            3.70073150154351       -9.98301168294342       -0.45252919950594
H            2.05534554628527       -9.92587590214911       -1.10197118267619
H            2.34607067156280      -10.54318311158054        0.51818357989623
H            3.47702186087336       -8.63308227589796       -2.20270724030707
H            4.13628081771429       -6.88697703877855       -3.78433470979292
H            6.07175754534225       -5.37272756405109       -4.15181047251534
H            6.86118686611884       -5.29716160846115       -6.48978971997272
H            8.27564649805992       -4.82289971275547      -12.55350433154519
H           10.34166914297966       -6.00956923055067      -13.20196792767841
H           10.21104457860229       -8.52497544311648      -13.41976533939143
H           10.95131853998869      -10.19253253947621      -15.05105137687463
H           15.42431553737626      -10.24596850234828      -15.83421556890534
H           14.14652093984835       -9.73305501249247      -16.93253082428801
H           14.90696728865456      -11.31112410528978      -17.13674605424893
H           14.97328576334293      -12.09530526900554      -14.12197318012699
H           14.44255315970391      -13.18020940857943      -15.40249723215988
H           13.38177711682251      -12.84451931439358      -14.03416340551416
H           11.88784691593261      -10.93670475430510      -16.92313458825547
H           11.57173844731197      -12.20999205181615      -15.73527101705376
H           12.70221038539523      -12.48951365013878      -17.05234376102155
H           14.97143439623892       -9.87430386650932      -13.63036963986609
H           16.27424332365090       -8.48841590296630      -11.80720909175299
H           17.78479090430213       -9.12078925114065      -10.21410371044523
H           17.31956434653108       -8.69808264820647       -8.56864983223314
H           18.96108399905459       -8.38367058029252       -9.13159026120131
H           18.19255520861770       -7.27687320456398      -11.94203408693379
H           19.36870941018604       -6.51203156445375      -10.87910885141846
H           17.99673178248775       -5.58634540870832      -11.48826490443541
H           17.20281282515825       -6.23948827095975       -7.86109154153428
H           17.47975343914502       -4.96443814631887       -9.05672222632317
H           18.81520465493709       -5.96704776628642       -8.50686190929385
H           15.34621109882369       -5.54042430536165       -8.85242911778998
H           12.98734061799813       -5.58975958510297       -9.50084038083246
H           11.00020352088631       -7.07796239021044       -9.14214955627355
H            8.93931849350731       -5.88163343331834       -8.49485062197454
H            3.36552429467586       -1.71838110760273      -10.23634978167396
H            2.09138952914293       -0.43589995685792      -11.94938300842819
H            5.22157930330224        0.66177696275082      -14.65326461963108
H            6.34729275535756        2.80690678282141      -15.14887572249307
H            5.01072630785001        4.76321112226253      -15.81021805062829
H            2.56249022924000        4.58457740446925      -15.97858647626104
H            1.45221846928060        2.42104719711993      -15.47562362553942
H            0.47958776788553       -1.92425819846071      -15.63348109763781
H            0.26509060012627       -3.28146852667883      -17.70234294684504
H            1.99102121323287       -3.11779623570278      -19.44834982821938
H            3.91702175569776       -1.61829509203985      -19.14197978413855
H            4.11108664248926       -0.27526740498313      -17.07250557294864
H            4.72160766492970       -1.84239247068258      -14.96452985287296
H            6.00445029020185       -3.11239936286291      -13.26348615926242
H            3.73596651806186       -2.59058219302753       -7.45994458854742
H            2.93634394890884       -2.67469360375601       -5.12547287748154
