81
 energy: -18.026129121702 gnorm: 0.000647776134 xtb: 6.5.0 (97a52f5)
C            0.90186000545583        0.04849271309118        0.01222214848702
C           -0.31979069365706        0.01079167316536        0.08191054980536
C           -1.71504257524099       -0.02239908726244        0.11387456185644
C           -2.41113720889866       -1.20817689577150        0.15563154197197
C           -3.81432164230363       -1.25787368774095        0.15004851880204
C           -4.59229062940809       -0.12433828529472        0.10287417505998
C           -5.98609504728127       -0.19081646821391        0.06052123183908
C           -7.20696281941242       -0.24343016849375       -0.01335532744668
C           -8.60376054065979       -0.30799113686575       -0.13113042018362
C           -9.21154175598196       -1.37570626082810       -0.78820615342311
C          -10.57791672083840       -1.43626562884518       -0.91738010157773
C          -11.38965945143433       -0.43061041676829       -0.39628492037270
N          -12.81237000059324       -0.48989963672730       -0.54377155328717
C          -13.48134585483287       -1.76036165487055       -0.56102605140495
C          -13.08436339557124       -2.78504535250375        0.29413866542969
C          -13.72271205956737       -4.00445034681374        0.27188355171169
C          -14.76854500708991       -4.22303806875840       -0.60346146224475
C          -15.17497616549633       -3.21580778688961       -1.45684482730187
C          -14.53892007129958       -1.99515314652006       -1.43587157362854
C          -13.57427566513756        0.71475776809968       -0.71291105631365
C          -13.07048055091078        1.77889463857209       -1.45639373763153
C          -13.80767081165083        2.92907180572161       -1.62518905200010
C          -15.06134375935786        3.03779846339926       -1.05617458044193
C          -15.57560588203498        1.99046861105428       -0.31696559092408
C          -14.84024870689682        0.83921984137349       -0.14682786649180
C          -10.78164390114925        0.63566290523988        0.26377511066809
C           -9.41487206052784        0.69598392370347        0.39365949571534
C           -3.92409114739504        1.14824331055070        0.07086313190701
N           -4.47976308650592        2.34075889590221        0.02854893233851
S           -3.27846156465421        3.46324714991365       -0.00183576977355
N           -2.00103004260362        2.42842884135889        0.03649058183634
C           -2.47135107279352        1.19965953272542        0.07624074692529
C            2.29909282333460        0.09262747517630       -0.10956330226448
C            2.91984256655011        1.14704062255251       -0.77599365043639
C            4.28613664334227        1.18327157363801       -0.91672336316290
C            5.08435063311201        0.16545366510393       -0.39798804550694
N            6.50608538148582        0.19202824094813       -0.56366763979756
C            7.20581252446202        1.44520312737978       -0.59533104275695
C            6.83694174542946        2.48814757088573        0.25023496708900
C            7.50711734398929        3.69008184541778        0.21570909837151
C            8.55739147244046        3.87273899009484       -0.66254587963142
C            8.93607032840314        2.84710875886695       -1.50668777539681
C            8.26796702206302        1.64400300571818       -1.47354966279543
C            7.23587646390801       -1.03221824926817       -0.73586726979553
C            6.70017964026621       -2.08315970542310       -1.47588486552525
C            7.40522415057258       -3.25298932348940       -1.64674559788599
C            8.65802717405401       -3.39497157992446       -1.08318622928890
C            9.20365509546988       -2.36118031591530       -0.34738010127929
C            8.50051010340176       -1.19025113530467       -0.17521429843588
C            4.46346317031373       -0.88541777106654        0.27443065571528
C            3.09718173810084       -0.92134964368757        0.41588287625105
H           -1.85167786526142       -2.12747305048888        0.18234882117962
H           -4.30750140655371       -2.21448959739149        0.17194201174394
H           -8.59193616567480       -2.15418376420380       -1.19951835950056
H          -11.03798986310083       -2.25670868929550       -1.43940146211062
H          -12.27522716863202       -2.60468560271672        0.98020525080042
H          -13.40610288549256       -4.78920084912779        0.93925469345619
H          -15.26659218753021       -5.17856319612478       -0.62074425810222
H          -15.99031465060055       -3.38587787869682       -2.14078017430021
H          -14.84431058325385       -1.20912256735057       -2.10413098582214
H          -12.09877714942081        1.68314250815041       -1.90838572396698
H          -13.40655184378773        3.74496308473302       -2.20390216716481
H          -15.63759323750939        3.93867208286212       -1.18930237962533
H          -16.55388556117502        2.07448566329956        0.12715270126887
H          -15.23204308981205        0.02216931312071        0.43333906459635
H          -11.40173557097398        1.40976845137229        0.68052312363998
H           -8.95247592366088        1.52526058533001        0.90121181131830
H            2.30951178288071        1.93401652780429       -1.18509989047957
H            4.75593598311580        1.99267332311001       -1.44720462230014
H            6.02444416951828        2.33573657344321        0.93908300177211
H            7.21196474797156        4.48928261990883        0.87570884749657
H            9.08051034441922        4.81454102549126       -0.68926732715781
H            9.75493529664775        2.98895378059682       -2.19283235577000
H            8.55187095286705        0.84391968599916       -2.13457404183585
H            5.72917993356805       -1.96163781638563       -1.92317343803737
H            6.97964945307020       -4.05826375569940       -2.22286753994607
H            9.20914930800203       -4.31119197753194       -1.21795443015048
H           10.18120081368251       -2.47130726258040        0.09262307206014
H            8.91663022676269       -0.38364948343819        0.40261700309130
H            5.07357728150884       -1.66791374109054        0.69025336315981
H            2.62573872373631       -1.73932918949234        0.93326461744730
