111
 energy: -21.252033736168 gnorm: 0.000343988503 xtb: 6.5.0 (97a52f5)
C           -0.20093556288440       -0.01589607798370        0.21153903936530
C            1.25565950780158        0.17100333821882       -0.25582146699209
C            1.23605771185474        0.76567469252057       -1.67587058019149
C            1.95206637358303        1.14971439145101        0.70751518050062
C            2.02477178796795       -1.15914742645672       -0.26915198867004
C            3.36846964906146       -1.17237483865723       -0.68595140030004
C            4.12078556250487       -2.32078255660470       -0.70078083467000
C            3.53673096414533       -3.51381483974614       -0.28115853608173
C            2.19160318398724       -3.52422577900161        0.11834178078429
C            1.44094558162373       -2.34821008957806        0.12625094933968
C            1.85742904328649       -4.88323524742615        0.46803102065391
C            0.66915246673401       -5.47066306196595        0.90239841766983
C            0.62705792345136       -6.82618940165662        1.16692496463174
C           -0.69582960237043       -7.46037536997162        1.62363154093269
C           -1.13846717824022       -6.81404797050035        2.94887719288694
C           -1.77118507755066       -7.22386476840410        0.54672540475149
C           -0.55866106790735       -8.97917085473503        1.84439263267912
C            1.80317844827205       -7.58263937657683        1.00525258647638
C            2.98113355643397       -7.02009044648617        0.57936734125644
C            3.01387412710084       -5.65721793339021        0.29046890849757
N            4.05327349714469       -4.82262590653640       -0.17351569437327
C            5.39534806972496       -5.23851743776892       -0.46957913551178
C            6.48722597337252       -4.46326837729438       -0.08808645381372
C            7.76793816537767       -4.88402624301456       -0.34744978347853
C            8.00513224923641       -6.09928555429070       -0.98082738337193
N            9.35506634880719       -6.55362782718407       -1.18143046983924
C            9.89059963188836       -7.75837617441691       -0.67745214264820
C            9.38745055738153       -8.65282022787577        0.26173444570018
C           10.07789232466506       -9.81430928660518        0.50524020351299
C           11.27355545127574      -10.12876540540489       -0.16810511377687
C           12.02310548163638      -11.44704856934293        0.07518863724134
C           12.02215768496815      -12.27189705673108       -1.22486537197812
C           13.47271589497412      -11.14211037971198        0.49674176722671
C           11.36311571474714      -12.28623005866479        1.18634829286856
C           11.76528464675062       -9.23781136958593       -1.10372923868175
C           11.08090274615799       -8.05011193499735       -1.35845809336265
C           11.29029141192467       -6.99657479660843       -2.32353123514540
C           12.21446396821268       -6.84967796589576       -3.35692083625800
C           12.09466480155829       -5.79550162055354       -4.24289246559941
C           13.05781238142476       -5.71355366428365       -5.43624242139124
C           14.50604078727057       -5.62524464076774       -4.92190268215541
C           12.88861783278302       -6.97721612186704       -6.30141379273926
C           12.77743529989569       -4.48115267895444       -6.31723590497715
C           11.04904584057148       -4.87044664622936       -4.05984205825474
C           10.12776633374124       -5.00143356496420       -3.04967012236243
C           10.23659802373303       -6.08168475544845       -2.17889650448184
C            6.91006985748106       -6.88809093254410       -1.38206770147954
C            7.08157540067378       -8.22035734185782       -2.01657110971174
O            6.46340918144192       -9.17854812439858       -1.58857737376108
C            8.00512865802600       -8.37638199604481       -3.16304631948927
C            8.17262082817733       -7.39666292606780       -4.12633073539306
C            9.07084101632572       -7.60322163704349       -5.14407040636210
N            9.81208820614027       -8.69052633257649       -5.28665461931798
C            9.62917849020614       -9.62699678051689       -4.36913416232575
C            8.75416216686840       -9.52764682523953       -3.31556320137177
C            5.62764162238699       -6.44072783115413       -1.11775158010897
H           -0.73177013696199        0.93588237047385        0.21205197887182
H           -0.23996109179788       -0.41444833088199        1.22496032134448
H           -0.74081354478303       -0.69389186240860       -0.44891713281140
H            0.67514020401125        1.69966654057928       -1.69936935041532
H            0.76896729942963        0.07374163783232       -2.37613776392150
H            2.24343528809011        0.97447122039150       -2.03314887361815
H            1.41842879800047        2.09873782541501        0.75292724105233
H            2.97372743149759        1.35684224816503        0.39200143925817
H            1.99066030471009        0.73574484881894        1.71478803505436
H            3.82175482467260       -0.24902572784959       -1.00208053193425
H            5.14064133056279       -2.31351901296597       -1.04054408116959
H            0.41737579086125       -2.39004121252888        0.44692046857977
H           -0.20570538988697       -4.85899343162078        1.02171056636480
H           -1.30150882018837       -5.74347282383620        2.83221419639851
H           -0.37947559065846       -6.95514246151179        3.71787372070332
H           -2.06817126768575       -7.25565918717933        3.30680370708556
H           -1.94979510547338       -6.16085656100659        0.39082110948415
H           -2.71768868074754       -7.68152924294591        0.83330919663892
H           -1.46281419469551       -7.65441539517350       -0.40559327906748
H            0.17596815316191       -9.19912047761046        2.61842567282484
H           -0.25784564595566       -9.48328901082380        0.92638397742782
H           -1.50813397476781       -9.41068644209176        2.16052920055251
H            1.78620008014374       -8.63644739160378        1.21834907212572
H            3.87207796982463       -7.61257371428084        0.47432957494253
H            6.31410408731726       -3.54443593183378        0.44365369599914
H            8.61153599294274       -4.29162529382341       -0.03853025506918
H            8.45633164511903       -8.43595123904633        0.75461774629667
H            9.67832498496548      -10.50646140118773        1.22444724574949
H           12.52345874299248      -11.73873471117142       -2.03163007574283
H           11.00215830593112      -12.48088378220263       -1.54640826642856
H           12.53416657393932      -13.22341319292571       -1.08410448050670
H           14.00833097175548      -10.60204875662616       -0.28268906966330
H           14.02111364135371      -12.06157115968561        0.70005044730222
H           13.49040439918081      -10.53219089837016        1.39955732574032
H           10.34432503504779      -12.56332502993358        0.91716232326446
H           11.33707293972000      -11.73850842276130        2.12801374438764
H           11.91929832797086      -13.20786841722336        1.35623082554907
H           12.65919196904890       -9.45707105416015       -1.65736352759328
H           12.98325519433077       -7.58934773013080       -3.48135527902096
H           14.77386771593345       -6.50444108034885       -4.33756135876363
H           14.63609769691603       -4.74894402115168       -4.28748035451639
H           15.20977961932295       -5.54976197275362       -5.75048450205230
H           13.12758441163470       -7.87805348995823       -5.73802582104258
H           13.54133330362662       -6.94517828671964       -7.17328046447531
H           11.86069623367612       -7.06936166573610       -6.65078117693027
H           12.88827322485630       -3.55852443863034       -5.74825951979697
H           11.76993271492684       -4.51573196196565       -6.73095422252665
H           13.47416226130109       -4.43826737722878       -7.15412687729548
H           10.94880235542363       -4.04524642732996       -4.74184234247165
H            9.31074858106613       -4.31075585122450       -2.93943352924097
H            7.60939203063360       -6.48190718150815       -4.05959425040105
H            9.20765757158008       -6.83217276233135       -5.88685395519078
H           10.22617857314106      -10.52013607423206       -4.47301436166132
H            8.65339968017218      -10.31895812352256       -2.59263823700226
H            4.79620323656080       -7.04624406039590       -1.42776127945066
