86
 energy: -18.022926535505 gnorm: 0.000648097872 xtb: 6.5.0 (97a52f5)
C            0.92079189029618       -0.14534570283085       -0.10719954951184
C            2.43476145527837       -0.21546419398105        0.16320841688673
C            2.80979963175437       -1.68205705194746        0.45117345749199
C            3.20749186085207        0.24517725456059       -1.08656495895500
C            2.78268520464335        0.70395027351008        1.34414589530805
C            2.52192763583729        2.08176555483905        1.23984219263596
C            2.81189705610194        2.96131721669702        2.25334377839525
C            3.37775457078293        2.47047823837453        3.42627431873894
C            3.65150912643601        1.10034654226233        3.54856758891223
C            3.35121671583757        0.22084038056045        2.50881166819528
C            4.25985501693308        0.89889190680003        4.84292432359301
C            4.73020428865833       -0.24409760159199        5.48744334587351
C            5.27531723332868       -0.14600091233078        6.75386578384761
C            5.79310647348027       -1.41643015540148        7.44612624833356
C            4.63908854743526       -2.42620533627567        7.58673569168815
C            6.92029874726209       -2.03269707710173        6.59734231527858
C            6.35050652727417       -1.11873577952123        8.85133297983294
C            5.33942341612239        1.11939226887953        7.36622792789667
C            4.88308749978481        2.25606580034628        6.74441013689288
C            4.34165267752811        2.15271330810021        5.46645162433015
N            3.79919253780940        3.12766340876717        4.60220163758768
C            3.74710466095094        4.54382132326832        4.83396440558426
C            2.57735596623295        5.25658052282607        4.59577925420805
C            2.54160200534376        6.62068371397064        4.76481193772667
C            3.67373203093734        7.31759255647839        5.17855418105167
C            3.64266208182314        8.71988756604005        5.31246459513181
C            3.60860138229673        9.93974327543421        5.37285341778852
C            3.56560563437039       11.34894157414266        5.38374869879639
C            2.40478410156306       12.02475815375444        5.02242636366122
C            2.36617414299292       13.40122980770938        5.00516859766097
C            3.48748376207341       14.14947100931857        5.34817665722555
C            3.45179431133943       15.55790451571332        5.30811346521274
C            3.41658699450820       16.77804464196440        5.24857135076388
C            3.37465447559172       18.18218451982678        5.15083338235992
C            4.52935211337848       18.91501467752628        4.89460206110313
C            4.48629068025915       20.28511799446031        4.78774987275032
C            3.28599216504949       20.98506716914348        4.93099610794694
C            3.29837276191037       22.43361561750901        4.80194781908245
C            2.25593284113826       23.29129865538539        4.87475757194531
C            0.93591536525837       22.89690423411901        5.09977795999850
N           -0.14450326096119       22.51156971607721        5.29190136108950
C            2.51525340818691       24.65492286241501        4.71358559852428
N            2.76113641920281       25.78383113177329        4.57661796209961
C            2.13217737559579       20.24183087975253        5.18966975281464
C            2.17589100844179       18.87288093768525        5.29738381995020
C            4.64657994460436       13.47386004834569        5.71589167718408
C            4.68502015495095       12.09708599526948        5.73331475305745
C            4.83977276910596        6.59919632692751        5.42953802032980
C            4.87561317636077        5.23462189433841        5.26137845889379
H            0.64079027884856       -0.80245874568374       -0.92987583969058
H            0.61110559982281        0.86536277609861       -0.36856011914601
H            0.35818066303935       -0.44998058200009        0.77460696544325
H            2.55956288887771       -2.31820975465510       -0.39728646934205
H            2.27021331297147       -2.06232284358110        1.31782765638238
H            3.87864974191333       -1.78458049264812        0.63548259008931
H            2.99877562777248       -0.40494876598219       -1.93553387500706
H            4.28126177645601        0.22653204539261       -0.90329059220103
H            2.93452523198107        1.26021263867442       -1.37086032859116
H            2.08277161911131        2.45915712530006        0.33303997592454
H            2.62113590542637        4.01438421920862        2.15187728385122
H            3.57402146609195       -0.82177525193094        2.63226961430720
H            4.66363157286088       -1.19291028886754        4.98871503659575
H            4.24460108817010       -2.71610716132138        6.61406008515145
H            3.82136567969013       -1.99763941816781        8.16513271671518
H            4.97262760976226       -3.33128032091516        8.09330096082384
H            6.56346204679367       -2.31115647117336        5.60689310227555
H            7.32029157235185       -2.92847541249179        7.07124552682550
H            7.73796963515985       -1.32390611183636        6.47104315602066
H            5.58225838981908       -0.69376990491404        9.49634934006269
H            7.18755038661167       -0.42316890897375        8.80266326372010
H            6.70951070782411       -2.03178746039461        9.32533238200878
H            5.75681950161788        1.20704234024701        8.35312440673811
H            4.92842350795660        3.21540490585671        7.22772565926718
H            1.69794214317652        4.72174400129500        4.28234394709093
H            1.63521145034977        7.16842658889483        4.57111463154381
H            1.53408666064692       11.45387620372139        4.74837302876193
H            1.46490389348493       13.91581210015731        4.71873999124907
H            5.46242701869543       18.39048629848008        4.77819037758756
H            5.39006954961918       20.83486348262089        4.58765826869017
H            4.26373973530239       22.87581759142902        4.62186654899171
H            1.18902188211235       20.74218202445311        5.30379011365239
H            1.27611294038681       18.31496550995835        5.49415084411880
H            5.51922787077825       14.04518457805744        5.98260424884979
H            5.58836528574529       11.58254631279265        6.01310293718404
H            5.72045009164364        7.13069012609308        5.74717082584731
H            5.78558908117830        4.68686736299483        5.43286781101194
