74
 energy: -15.184204691088 gnorm: 0.000500904650 xtb: 6.5.0 (97a52f5)
C            0.92131180545870       -0.48075423645310        0.10004411917362
C            2.44637394220290       -0.28177002711568        0.16872779879885
C            3.06279008284165       -1.49697218946261        0.88853269989429
C            3.02668055620453       -0.21735651617539       -1.25608464508816
C            2.75554105110270        1.03213375621484        0.90291529010449
C            2.27459544353203        2.24333371984358        0.37438120206489
C            2.52270284819017        3.45412515984188        0.97235404121716
C            3.27105361736212        3.48245360866845        2.14552928901274
C            3.76437886059716        2.28598695088150        2.68643487111186
C            3.50385161232964        1.06486444552014        2.06540199817527
C            4.52769409355070        2.62968932430712        3.86294593192210
C            5.24165511049443        1.85340157445829        4.77451393163256
C            5.90024259773194        2.45878854170793        5.82811166227099
C            6.69329459998361        1.58783516930553        6.81480762702087
C            5.74474783452893        0.56745717141444        7.47063704491304
C            7.80647555663078        0.84541965949010        6.05286599972321
C            7.34510284210235        2.42948616450941        7.92864903824302
C            5.82741683467463        3.85835576726956        5.95608959668416
C            5.13119823409187        4.63834642403284        5.06529867752104
C            4.47801406768754        4.02451978784069        4.00044505050014
N            3.70657030457420        4.55999084729142        2.94686401231362
C            3.49499101327418        5.95295726936573        2.67038566203566
C            2.22532119054419        6.43323274170362        2.36947942185567
C            2.03319723517558        7.75967908051922        2.06136126173416
C            3.10408846887852        8.64961781424990        2.04403633702962
C            2.91550230451793       10.00234055944363        1.70105129856415
C            2.76535778961328       11.16934063863338        1.37012200068993
C            2.60791867726449       12.50644791582098        0.95850840441134
C            2.00456064857483       12.80891488897157       -0.25823026532967
C            1.85694033212728       14.11295970764596       -0.66782494978564
C            2.30685655400087       15.17454049120802        0.12074219823172
C            2.12769959823814       16.53368507052090       -0.36451056717806
C            2.48225664373555       17.69218629915045        0.23550855813515
C            3.10896538697053       17.76447741025006        1.48064145608261
N            3.62784261885643       17.76331519638277        2.52162330515695
C            2.20547667615275       18.88864139460752       -0.43145768693560
N            1.96114605633393       19.86779779614950       -1.01061759566915
C            2.91003521381881       14.86198828326591        1.34123231274560
C            3.05714821193284       13.55860181381796        1.75015195119438
C            4.37238049337962        8.16719690327467        2.35592374147804
C            4.56457356509927        6.84128483584993        2.66481901161657
H            0.67246135249205       -1.41631072219899       -0.39975567029049
H            0.44003568164634        0.32738420059410       -0.44855583745061
H            0.49161496865208       -0.50807403130281        1.10078951510714
H            2.83393308196625       -2.41881478867790        0.35469353201179
H            2.66893008054961       -1.59568212899842        1.89945547256101
H            4.14731473899305       -1.41066113576832        0.94558851291441
H            2.84327653640861       -1.14673624942796       -1.79420303374440
H            4.10305625795429       -0.05175561274536       -1.22578569389806
H            2.57999968900635        0.59271118690750       -1.83046445891188
H            1.69620380545912        2.21977694692220       -0.53252298726398
H            2.16212043894929        4.37274718876341        0.54606569869528
H            3.89917272523636        0.16768343096426        2.50209899683909
H            5.27465323528841        0.78793080827723        4.64382539469740
H            5.29911239967255       -0.09382876964298        6.72913522504626
H            4.93614850139300        1.07558311052570        7.99486190533271
H            6.27710350555671       -0.05235402689429        8.19134502379695
H            7.39360544522404        0.19318445952215        5.28477096002480
H            8.39886995647739        0.23010554570051        6.72917666806663
H            8.47671567139717        1.55280230309643        5.56573345116575
H            6.59303041600941        2.96428916132898        8.50759737049241
H            8.04543624843077        3.15407949381860        7.51476599158323
H            7.89988415742110        1.79371784023063        8.61799301642751
H            6.33039053310939        4.34001712013461        6.77516534664203
H            5.07618345327024        5.70596045248781        5.18020542516634
H            1.39352908536028        5.75109379158906        2.39036629364512
H            1.04870814744558        8.12521245578375        1.82427926950691
H            1.65460828773218       12.00199355439294       -0.87930530228697
H            1.38868404836070       14.32711304982141       -1.61328146598216
H            1.65102892437347       16.62484220701295       -1.32600983484488
H            3.26872778718828       15.64929458226247        1.97711758197072
H            3.52663006305536       13.33547180070654        2.69322130907184
H            5.20607160882554        8.84824653521096        2.34278934849683
H            5.55020859285911        6.46856502531892        2.88180188215723
