70
 energy: -13.853164903252 gnorm: 0.000950998042 xtb: 6.5.0 (97a52f5)
C            1.14882421802917        0.02495622181728        0.27937839753041
C            2.64139535617926       -0.22929191564567       -0.00153055396944
C            3.49736697152826        0.44989244037922        1.08337814572080
C            2.89438809886715       -1.74822130831661        0.06026445388132
C            3.00705541999982        0.35350402513887       -1.37519269586521
C            2.82391741360615        1.72831290654662       -1.60898283161683
C            3.13068908007768        2.31543487807769       -2.81176474179542
C            3.64633497574183        1.52227040790969       -3.83288424119409
C            3.82959903554476        0.14763196896622       -3.62289598442963
C            3.51194298957758       -0.43250425054767       -2.39502808731944
C            4.34982157172563       -0.40719239574424       -4.84996135686487
C            4.71717074236933       -1.70366834237703       -5.20760525543697
C            5.20733006690930       -1.95617547067230       -6.47501938563055
C            5.60698536546329       -3.39164153699538       -6.84954588431693
C            6.71388162444963       -3.87689181836844       -5.89513968128863
C            4.37695238249031       -4.30977536039020       -6.72562016301342
C            6.13728521130429       -3.48236487629177       -8.29325934628216
C            5.32538576097973       -0.88441324890349       -7.37971557640343
C            4.96609857160557        0.39854621048017       -7.04460534871032
C            4.46586881518032        0.64600686045173       -5.76925327172960
N            4.03590679368042        1.84006777979901       -5.15164181198152
C            3.99387928944263        3.14419349611649       -5.75051894086924
C            4.52329513988174        4.24455170900333       -5.08555520377998
C            4.46108919477913        5.49864611042019       -5.64653980319926
C            3.86857725220607        5.69374223884390       -6.89146492878369
C            3.79526479967367        6.98184031749548       -7.45769567998696
C            3.72407377805233        8.10242746648164       -7.94003604322739
C            3.63977969901166        9.39610261449955       -8.49290021205144
C            3.69730017536104        9.58809887627947       -9.87070999851068
C            3.61606473069721       10.85120485540101      -10.41126235970961
C            3.47382328430783       11.96281177152596       -9.58654495135524
C            3.38457814032334       13.31278022077481      -10.13314282370414
O            3.25449639422486       14.31329055683411       -9.48035400531894
C            3.41571993122556       11.77491617482535       -8.21262857910188
C            3.49701781301727       10.51173562962289       -7.67246010740462
C            3.34478949878833        4.58857687719538       -7.55743551702827
C            3.40692661129194        3.33419718374625       -6.99651786089449
H            0.85512215704018       -0.39933895334019        1.23907628058572
H            0.52933673029514       -0.42831032695727       -0.49403432866138
H            0.92560029172119        1.09056248037495        0.30512459735740
H            3.27119617687268        0.04431022601947        2.06906856864227
H            3.31713663243050        1.52358950070834        1.11593292428363
H            4.55834969700827        0.29425028969115        0.88950455208827
H            2.62942988780270       -2.14499429145873        1.03994409382361
H            3.94500254274284       -1.97828136776511       -0.11433091409248
H            2.29555231411099       -2.27557581859656       -0.68172996984943
H            2.42785344604976        2.34094035948131       -0.81804238086636
H            2.97128416879764        3.36543551846219       -2.97898382094242
H            3.66493744946217       -1.48705703788815       -2.26622845644095
H            4.61566695716553       -2.49487421513051       -4.48841470298260
H            6.37045853865755       -3.88567081840178       -4.86168405613277
H            7.58465377412697       -3.22452719458132       -5.95288733860688
H            7.03181973586473       -4.88785673980673       -6.14844874341404
H            3.99371192436392       -4.32308061640714       -5.70627705100459
H            4.62547821175450       -5.33427715358805       -7.00116876989003
H            3.57519661492584       -3.96893571524731       -7.37995643933482
H            7.02237392147435       -2.86092122109268       -8.42577532508328
H            5.38003880453522       -3.16619016301528       -9.00998060663242
H            6.41506104105546       -4.50707189286819       -8.53891868915098
H            5.71052296688659       -1.06714875387093       -8.36679142677428
H            5.07293259834619        1.20999564277380       -7.74186697928806
H            4.99236681321104        4.09749281868121       -4.12847509771740
H            4.87055734622717        6.34712626726494       -5.12546296897144
H            3.80772372645420        8.72982435764702      -10.51143035419393
H            3.66194616746539       10.98935602915796      -11.47785188667303
H            3.44033676088534       13.43592224588655      -11.20542584243853
H            3.30460755805232       12.63993105000383       -7.58091424875327
H            3.45038746934657       10.37307588707513       -6.60578325684004
H            2.88210657731538        4.73083869404345       -8.51905216689820
H            2.98259479994110        2.48684163832237       -7.50603295944447
