111
 energy: -23.157767967414 gnorm: 0.000843886299 xtb: 6.5.0 (97a52f5)
C            0.95955193809714        0.00992683042215       -0.14877776186433
C            2.46881930315970       -0.07883545428867        0.14259559572096
C            2.82524058541764       -1.55350717836126        0.41260677515577
C            3.26431938125144        0.39498171685274       -1.08775660902241
C            2.80877007601624        0.81794998174674        1.34307005521448
C            2.54791397395847        2.19739583461650        1.26430589178634
C            2.83254906772659        3.05737956584047        2.29559846669716
C            3.39435144803680        2.54459759633357        3.46089458835646
C            3.66988310005818        1.17284190901822        3.55728848728225
C            3.37417300191381        0.31345014012372        2.49975489428379
C            4.27606731142414        0.94733750181283        4.84818061248485
C            4.75290489805235       -0.20545922021948        5.46991634056014
C            5.29934528090630       -0.12917624615642        6.73699488551372
C            5.82648404969518       -1.40918870879127        7.40355669902987
C            4.67529642037573       -2.42247693919100        7.53986785045710
C            6.94608000089662       -2.00977287316630        6.53363791347685
C            6.39834475129322       -1.13198824158329        8.80712711326733
C            5.35585490290885        1.12389166004943        7.37458734520528
C            4.89301731172267        2.26965895278171        6.77590550037592
C            4.35246351713083        2.18866331046879        5.49619244169667
N            3.81055201120776        3.17902539812389        4.65048394670418
C            3.76039594621758        4.58915262330668        4.91432004423527
C            2.59061906423784        5.30850892921542        4.69929734318588
C            2.55398034121262        6.66552257592583        4.91574669857505
C            3.68500895025040        7.34735830039618        5.35491541390205
C            3.65415971317688        8.74301223010703        5.54011211827279
C            3.63149198350729        9.96040833583425        5.63662817560817
C            3.60329970435140       11.36856783808870        5.65793595902094
C            3.29341924664301       12.07363647843859        6.83783330871067
C            3.25521070274158       13.44549543584850        6.86775001094243
C            3.52787268345732       14.15083598594569        5.69408079305133
C            3.56930053755977       15.55912850779480        5.38717879671626
C            3.33707210111513       16.69792506371338        6.15968943423785
C            3.43167515338105       17.92940825749751        5.56232334238057
C            3.75260001915339       18.06796696514370        4.19707268083948
C            3.82493689815936       19.34870687392606        3.61569883095126
C            3.87186905522268       20.46693485620192        3.12569899982217
C            3.91499825097538       21.76261993005872        2.57788607768521
C            4.46397206598747       22.82014506438025        3.29634549267906
C            4.49794573998309       24.08882378562200        2.76901426920485
C            3.97524163543665       24.35972049320155        1.50246011837995
C            4.07167616389056       25.71244031192185        0.97233363234298
C            3.34679076375408       26.31664656780021        0.00253438833936
C            3.72388723247030       27.60242753966876       -0.37996164903209
N            4.03034321275745       28.66450619116493       -0.74103325894101
C            2.15782004584804       25.73406399888217       -0.67299825268253
O            1.49855809213042       24.88006331928885       -0.10992476510896
O            1.86376406554865       26.20430357186142       -1.92113059272765
C            3.44092075172425       23.29001574858315        0.78183088322333
C            3.40516060198607       22.02180936601223        1.30970225992584
C            3.98615625454884       16.93845138176896        3.43301123460035
C            3.90032610964558       15.68224744421168        4.02646743562514
N            4.06424892136551       14.39332760570350        3.48159836135862
C            4.40425831507100       14.07062415516731        2.12427212257232
C            3.65169976731751       13.14405998943220        1.41261854989389
C            4.00206799261659       12.80064812161030        0.12784696535406
C            5.10597075908793       13.37475139251522       -0.46856588643768
C            5.49030206097441       12.96090940426954       -1.87998470224504
F            5.76680904646555       11.63862988137770       -1.87489979483388
F            4.44751801880023       13.21525316761331       -2.69989941249890
F            6.57563357569214       13.66344112475468       -2.27125144338947
C            5.85447880409718       14.30349856750153        0.22707856525308
C            5.50843305276169       14.65155844781385        1.51244544135188
C            3.83292842727784       13.45945010870759        4.51018078805236
C            3.87647319673961       12.06894857929411        4.49743517626968
C            4.85240107162544        6.62314172545441        5.57752693780524
C            4.88927494750056        5.26584273467534        5.36188401218011
H            0.68561875557920       -0.63302619382665       -0.98429074902981
H            0.66336270883386        1.02675290939744       -0.40106296644314
H            0.38119866323387       -0.30129557550631        0.72026087568362
H            2.57634305242863       -2.17453222622354       -0.44709773852574
H            2.27347551291723       -1.93986639459544        1.26862433985110
H            3.89102100270787       -1.67044277002987        0.60517067955259
H            3.06026096416682       -0.23719510455920       -1.95101939720589
H            4.33497188037567        0.36074720114075       -0.88991582490944
H            3.00674067928088        1.41801959151045       -1.35689551966213
H            2.11427583706742        2.59246565824070        0.36256653107657
H            2.64216982702709        4.11205216951003        2.21315322441406
H            3.59885426892856       -0.73073779581429        2.60346046841766
H            4.69071166562821       -1.14451489231165        4.95286927916845
H            4.27037197884444       -2.69540780944516        6.56677620762858
H            3.86398593757710       -2.00488624091393        8.13470356347806
H            5.01545887078320       -3.33560627503073        8.02675066706172
H            6.57921123209717       -2.27543224511992        5.54356961925970
H            7.35388046963498       -2.91070833165006        6.99029920326793
H            7.75997395720640       -1.29673553737205        6.40848071763373
H            5.63542288317137       -0.72245641694278        9.46789988577030
H            7.23060943697948       -0.43087801429104        8.76027053024173
H            6.76782352105496       -2.05058516712567        9.26145870843589
H            5.77301389189553        1.19468763552542        8.36278517221454
H            4.93365412275374        3.21923786080545        7.27819204175681
H            1.71166140186063        4.78425154331175        4.36761244845045
H            1.64770821920200        7.21923480041686        4.74012291429167
H            3.08356125822952       11.51053824848042        7.73068925988235
H            3.01959331874338       13.97939236280833        7.77095383225279
H            3.08461592708398       16.59788107994072        7.20016210681784
H            3.25237261159611       18.82075554911841        6.13848317579666
H            4.86169552951149       22.63003596978212        4.27863250852113
H            4.92453877989295       24.89601968026483        3.33979127580316
H            4.85118471791235       26.31525906595454        1.41063956025760
H            2.47747878217831       26.92063155166699       -2.18660383850466
H            3.02685851675940       23.47323267801697       -0.19467895952971
H            2.97208266641181       21.21234617258821        0.74656420795129
H            4.21962265873291       17.02702217344413        2.38852926210817
H            2.78673100055450       12.70592849819551        1.87897674567063
H            3.42692483964120       12.08119918712488       -0.43026581400745
H            6.71349390592099       14.74068233100753       -0.25307416580345
H            6.10023304462400       15.35897988569081        2.06631637385588
H            4.12377373881894       11.54500397691531        3.59323060458110
H            5.73325697971207        7.14444651471598        5.91070383673217
H            5.80024760666552        4.71365818113813        5.51198920871509
