105
 energy: -21.728202620013 gnorm: 0.000779580073 xtb: 6.5.0 (97a52f5)
C            1.30858493280944       -0.63245755044239       -0.37042357123080
C            2.76758649873963       -0.30116098515436       -0.00669746675780
C            2.97358285185153       -0.45848632333920        1.51082722044847
C            3.68690687780218       -1.30550028061248       -0.72849876485870
C            3.07704660435611        1.14778048099311       -0.41330184672665
C            2.32006294786982        2.19457477165651        0.14269316385099
C            2.54254232491301        3.51097445110735       -0.17749475461820
C            3.55623264318140        3.81973053546667       -1.07981149797999
C            4.31817689641655        2.78982771775007       -1.65056302822067
C            4.07857194587470        1.45790755934306       -1.31455271940757
C            5.26109498730867        3.40427392915148       -2.55402285033030
C            6.25312058044940        2.87008202698895       -3.37479673804844
C            7.03427049113513        3.70925406212223       -4.14612232643358
C            8.12284192975149        3.10159556577980       -5.04402796830819
C            9.12678188715848        2.32619631640951       -4.17114785252325
C            7.46905477671909        2.14398434621281       -6.05719799160008
C            8.89292288003619        4.18339315264148       -5.82528904600863
C            6.80615224723774        5.09636426545326       -4.07899347836002
C            5.83225399650016        5.63892905271809       -3.27690540681005
C            5.04317220325544        4.78883075217914       -2.50751298391925
N            3.99412304674390        5.05533801784907       -1.60229424510808
C            3.44273352803083        6.34514054851624       -1.29618292053033
C            3.24540351400552        6.73715354519319        0.02290029377138
C            2.69486403298501        7.96303778408899        0.31437117142230
C            2.32373368315667        8.83698951021590       -0.70354095359696
C            1.74041614517077       10.08444179968461       -0.40786426939277
C            1.20705407712195       11.15507493167215       -0.15984593254407
C            0.56207465819306       12.37835393679993        0.10944022994841
C           -0.74785767333960       12.38586044157804        0.62912336628055
C           -1.40998481495488       13.55703046273025        0.89754761565994
C           -0.76168618644352       14.76644190636284        0.64224120607946
C           -1.16359155314550       16.13923962059392        0.81534394757635
C           -2.34182822355328       16.72143282222709        1.28525810296600
C           -2.43184209827074       18.08991660734994        1.31852818179830
C           -1.37062835404561       18.91190426085156        0.88912774092300
C           -1.50389319470047       20.31375594083754        0.93146533148094
C           -1.63762299908592       21.52727270524661        0.97315592905771
C           -1.80559705460762       22.92451070563613        1.03459900739990
C           -3.03042582753275       23.50588220366536        0.71978795326356
C           -3.20172009774273       24.86929925981510        0.78600609937837
C           -2.14918402770374       25.69288721507490        1.17140225461433
C           -2.30403721547378       27.14067946002286        1.25819792416918
O           -1.44345362671654       27.90441228857421        1.60320892213854
C           -0.92602768564590       25.11666393819913        1.48387988346156
C           -0.75489314980591       23.75319044843353        1.41672133717885
C           -0.20244869235829       18.33314969305419        0.42534504961574
C           -0.09272431757917       16.94547254175428        0.39311953908896
N            0.95965491234961       16.11251347791330       -0.03771829735575
C            2.22936973223442       16.54424088247901       -0.55118957578525
C            2.71978844200403       16.02841695363759       -1.74472347762345
C            3.94401090350998       16.42988529732961       -2.22693645408855
C            4.69838860396261       17.35118574715666       -1.52961245331837
C            6.05580301057434       17.77053808566298       -2.07310731918973
F            6.85127994327670       16.67935477235633       -2.11854355794637
F            5.88193531113375       18.27323008332705       -3.31513149531300
F            6.59186855863286       18.70693024782769       -1.25994257656230
C            4.21781302363764       17.87193257017972       -0.34456490736137
C            2.99396290727042       17.47435795065138        0.14265642525160
C            0.54191071799892       14.77543159669267        0.11801346107092
C            1.20398405977871       13.57812908814913       -0.14079785322973
C            2.52843079356370        8.44403064966220       -2.02306281997683
C            3.07948183855141        7.21861205145755       -2.31474508857454
H            1.06792037425888       -1.66367589701982       -0.11469759622140
H            1.13944439359242       -0.50147335430913       -1.43856149764431
H            0.61080226537586        0.01311833895654        0.16033542885798
H            2.78000906071574       -1.48310234156116        1.82612627543622
H            2.30602319739189        0.19411735386416        2.07112640650765
H            3.99686747011399       -0.20775685313842        1.78779375761841
H            3.45278360823850       -2.32685553833469       -0.43034486131047
H            4.73326382386575       -1.12375515329330       -0.48612732296291
H            3.56486165012873       -1.24190091892401       -1.80912737430022
H            1.53835543866561        1.95427932635623        0.84170518813773
H            1.94593392133991        4.29853040739512        0.24602436575338
H            4.67940000814725        0.69352997447392       -1.76894325312049
H            6.40007432497801        1.80651601977593       -3.39638178409029
H            8.64098429185597        1.51073881826949       -3.63767697132869
H            9.58266719805556        2.98445972496170       -3.43257640723571
H            9.92294672993088        1.89828687313876       -4.77918383731693
H            6.95363278091136        1.32705341124895       -5.55465416263685
H            8.21585554951551        1.70855189485603       -6.72006650113987
H            6.74018884210147        2.67232636862830       -6.67059577388822
H            9.39113467476197        4.87634774612001       -5.14841832035013
H            8.22506377904831        4.74982492152643       -6.47311134207380
H            9.65834257112787        3.73245966271303       -6.45591590425418
H            7.41148753057642        5.75957239247815       -4.67013500939661
H            5.67709515508561        6.70153721766387       -3.22607379049745
H            3.54127725931867        6.06965683211728        0.81310826969573
H            2.54264096807201        8.26071943769660        1.33764955912161
H           -1.22960136990870       11.44172480597339        0.81670316640157
H           -2.40834367129091       13.55751960915139        1.29726871596336
H           -3.15614064285502       16.09821374662188        1.60936734054709
H           -3.33172105027518       18.56033490581724        1.67569360950020
H           -3.84686362766793       22.87020260861226        0.42244622599193
H           -4.15300879125326       25.30938010492762        0.54107706524578
H           -3.25994429229310       27.57283183115440        0.99784249929131
H           -0.11627715104043       25.76181284114422        1.78047279318525
H            0.19610481184685       23.31193051316738        1.66138245963447
H            0.60996009193021       18.94718559213148        0.08439289190537
H            2.12286445221730       15.31961684617472       -2.29132973787369
H            4.33219002278986       16.03531587303348       -3.15074569148410
H            4.82014652948124       18.58782950269860        0.18857204036017
H            2.62342260603832       17.86447796164784        1.07431632090726
H            2.20605212652135       13.58782266297911       -0.52694827700644
H            2.24141787295548        9.11315255871425       -2.81603617178588
H            3.21727606111121        6.91175547347974       -3.33665966029479
