270
 energy: -52.700283422116 gnorm: 0.000932552474 xtb: 6.5.0 (97a52f5)
C            0.44673482088758       -1.94328375232390       -3.48070556931550
C            1.74693490197540       -1.78303169603006       -2.67156864327991
C            1.46350859669465       -2.03312275735595       -1.17895438904151
C            2.75430622401474       -2.84297615996657       -3.15814825685246
C            2.28789842624707       -0.35638379538262       -2.85435550737362
C            1.49085821803357        0.73620812016425       -2.46372953631355
C            1.91236965684889        2.03626550139452       -2.59643776633896
C            3.17348503475442        2.28056053112593       -3.13368214359476
C            3.98173392869691        1.20599297835264       -3.53616908482250
C            3.53705938408402       -0.10942884931053       -3.39299935918305
C            5.20611259443076        1.76303527722046       -4.05833436197444
C            6.35688302321129        1.17291784308059       -4.58279863105259
C            7.40762987689893        1.96623260139577       -5.00259000836823
C            8.66617258124609        1.29918207136671       -5.57886670952666
C            9.27777900827336        0.36456612861543       -4.51881145737514
C            8.28224846464235        0.48495354874325       -6.82807843635320
C            9.73181739641933        2.33584711761346       -5.98369569391887
C            7.28893532471538        3.36497908281014       -4.88644050599071
C            6.16348898064400        3.96276570904840       -4.37444675955213
C            5.10508030167370        3.15909194076729       -3.95889969951190
N            3.85646630389702        3.48650607374142       -3.39245015497610
C            3.37223347292666        4.81363625635357       -3.12532656358118
C            2.88797427596918        5.14764911912131       -1.86557786511515
C            2.43589006222639        6.41851900003547       -1.60545758224518
C            2.45305512445653        7.39749277346896       -2.59656896714593
N            1.99628013930723        8.72791575140346       -2.31263761558257
C            2.26879991522928        9.31554703290030       -1.03507617974048
C            3.48849297645542        9.09406175056710       -0.39686667578279
C            3.75728384519801        9.67156807587760        0.81817636857260
C            2.81525543215720       10.48278596983120        1.45643008239798
C            3.12563965107218       11.08494357227255        2.74379414447319
C            2.24025666738253       11.65175126824118        3.62275200215948
C            2.83986292528347       12.15909515234009        4.79732023021196
C            4.20005257215784       12.00470638646986        4.84027321701689
C            5.06361698981386       12.44967870801547        5.89912864662228
C            6.43292037096988       12.42713265776563        5.86578507969141
C            7.04545469192851       12.95281892192693        7.02284010431649
C            6.15882287231904       13.37766896635194        7.97969364378172
C            6.50295229862221       13.96290114331194        9.24790910970774
C            7.74721492155180       14.40818558796431        9.61575088299859
C            7.79931459996476       14.95849544239339       10.91343188486888
C            6.60283520782377       14.93334735100570       11.58034796548397
C            6.39104781322041       15.42527472291667       12.91449204834387
C            5.26864781629643       15.23411372060238       13.67593867891116
C            5.33732001113223       15.82356166960477       14.95844430718515
C            6.50691528760869       16.49465995894844       15.20174468268850
C            6.86418234676539       17.21703499874758       16.41391043593667
C            7.87192055053032       18.18428377715332       16.37816927261080
C            8.21945547245613       18.88621228251410       17.50412501052337
C            7.58681841654763       18.63779234990636       18.72133380205186
N            7.95556003211329       19.37801515979846       19.89137144203776
C            8.25080833056788       20.77804293769042       19.76630723852819
C            7.45859433002614       21.59085621592744       18.95866648871137
C            7.74381639096980       22.92629302730994       18.81354476769904
C            8.83415652236953       23.49057035828557       19.46589173708917
N            9.13678139582521       24.88623608852125       19.29623339705104
C           10.35209407863018       25.42262435844094       18.82509938020928
C           11.54136137689855       24.80604935380451       18.44594307931435
C           12.57499209023224       25.58530482754393       17.98684323591695
C           12.46929486428170       26.98636410314027       17.88508866620487
C           13.62153516483007       27.85621201009382       17.35914492391843
C           13.16103257189007       28.59259161142932       16.08769267946481
C           14.01875507697371       28.88191240706168       18.43676634150804
C           14.86400893821373       27.01459299494851       17.00993325375818
C           11.28518221150300       27.59263983069600       18.25913746018506
C           10.22430580583537       26.81682249016709       18.72805332663246
C            8.88819095437803       27.15615988831172       19.15487066793535
C            8.21574124813679       28.37463541100828       19.25837493936492
C            6.90785788063803       28.40412657494772       19.70380459838833
C            6.18214795206684       29.75454708715897       19.80739354658808
C            6.95432732514511       30.67539632548236       20.77019039809553
C            6.11530794932508       30.40258599173878       18.41231147911060
C            4.74449519095766       29.59519890355875       20.33832340249075
C            6.28067366745921       27.18980380888270       20.04482541493171
C            6.92592333718598       25.98144930810851       19.94622977391867
C            8.24242897245153       25.95746057361854       19.49394902537530
C            9.62912707452680       22.68211778463246       20.27126077805639
C            9.34088311127259       21.34677009807089       20.42150715848270
C            8.10827796427021       18.71676110363469       21.15428932100496
C            8.54300785542738       17.39456692110463       21.21493353278667
C            8.73193936128478       16.77221220687641       22.42500728245442
C            8.49101242545510       17.45092903450177       23.61430972791505
N            8.72415748908726       16.81063044995808       24.88046817411862
C            7.82248798642433       16.74275332702859       25.96198975016195
C            6.51572747697552       17.20343814955710       26.09927058195052
C            5.86001535037827       16.99460993999471       27.28798130342276
C            6.46611151571474       16.32899851402261       28.37145835602450
C            5.73505442321630       16.10331320973803       29.70400310976958
C            5.64528742302187       14.59218235120215       29.98604508668214
C            6.51708740710932       16.79588539123341       30.83535137218761
C            4.30559533373237       16.67790127439185       29.67995259973849
C            7.76102150250657       15.86858480614108       28.22790175086117
C            8.44188937466399       16.07020478077044       27.02666935554575
C            9.77040439482168       15.71126209090488       26.59315100871297
C           10.82085290634211       15.05233355764584       27.23344863764318
C           12.01740943372357       14.85637033422746       26.57048486090823
C           13.16459712643788       14.13322434782834       27.29309053365627
C           13.55767797595384       14.93309342082775       28.54870688354151
C           12.70050464999028       12.72288202779021       27.70137279826000
C           14.41031911210240       13.99274595621304       26.39717642116439
C           12.14753954854886       15.33569771510182       25.25240181740662
C           11.12444571313255       15.98611130979925       24.60704323152663
C            9.91848119301054       16.17494708307437       25.27710611495906
C            8.04553818426573       18.76706059694730       23.55776246026799
C            7.85729393648644       19.39015932487555       22.34760962173840
C            6.58845554192656       17.66479991124751       18.76692386351863
C            6.22812604433278       16.97351898032949       17.63604136957072
S            7.55351335544553       16.37156983971296       13.80795686362506
S            5.37735759345186       14.21688554543114       10.56108259194603
S            4.52379563066774       13.11152128017187        7.42381957599781
S            4.74271151722050       11.18523861954501        3.39758756005901
C            1.59090428258389       10.69845692785788        0.81509802664724
C            1.32748376294394       10.13115832641358       -0.40735334618585
C            1.33934508415092        9.49833756559493       -3.32955901942272
C            0.46742146677295        8.89715363128747       -4.23462310630427
C           -0.13142104130223        9.63500150654468       -5.22740760359224
C            0.12199735510405       10.99715334033457       -5.34729493785421
N           -0.48091832519610       11.76663330185590       -6.40170845041155
C            0.20272400358830       12.59732541618095       -7.31286215047315
C            1.55895732744618       12.87546187098170       -7.46171353331566
C            1.95585185856000       13.72475301064173       -8.46539008675612
C            1.03601616898135       14.32078349400784       -9.35008492162649
C            1.48158796361255       15.27039609727986      -10.47291939964044
C            1.03930310924686       14.69543730436847      -11.83131749940985
C            0.83278353421214       16.65004385159083      -10.25815735016564
C            3.01153069492230       15.45185093464244      -10.49905795003798
C           -0.30842342779357       14.03822801162241       -9.20060888063157
C           -0.72967084725310       13.17622585791683       -8.18711308916786
C           -2.03323114665139       12.68803088713253       -7.80738899070099
C           -3.30942941557720       12.92619596529785       -8.31900095595908
C           -4.40683355704500       12.31265149855369       -7.74568697853797
C           -5.80428629899747       12.58798860842948       -8.32218996426480
C           -6.11666765782513       14.09063521268708       -8.19921054344609
C           -5.83479443257939       12.17211631414447       -9.80469671002272
C           -6.89904720193270       11.80109901070726       -7.57623115632491
C           -4.20622119340397       11.45752635251785       -6.64439808564106
C           -2.95742835669083       11.21128977787259       -6.12822382760977
C           -1.85416893442533       11.82591367139561       -6.71452723751990
C            0.98403546383704       11.60208182143518       -4.43956421699880
C            1.58212714214060       10.86518645168729       -3.44665289237717
C            2.93720018615288        7.05886524559854       -3.85816718962726
C            3.38904881326513        5.78748585925860       -4.11791329792991
H            0.05188468588684       -2.95481034956661       -3.38797981947267
H            0.62447400557816       -1.74607407199037       -4.53760512026485
H           -0.32273448179664       -1.25353222326352       -3.13651791953040
H            1.09816391160337       -3.04683028415413       -1.01580450092341
H            0.71216637809533       -1.34339380528933       -0.79669250493558
H            2.36964134749907       -1.90181158584281       -0.58800629535557
H            2.35449324953494       -3.84766424653306       -3.02166021817890
H            3.68840118440573       -2.78201195229527       -2.60019205039700
H            2.97449553154431       -2.71764818455274       -4.21804711325011
H            0.51732181340853        0.54454442261159       -2.04725761259357
H            1.28924212332705        2.86139833692676       -2.30117664056218
H            4.17992573004627       -0.90950910160736       -3.70749434447655
H            6.41246678070614        0.10249640361725       -4.65271189209401
H            8.58240007585755       -0.42520967184582       -4.23755647520959
H            9.53458765609739        0.92093002358954       -3.61765278587200
H           10.18517044870213       -0.10895807218770       -4.89313207460438
H            7.56797152790354       -0.30068270595640       -6.58504902228479
H            9.15900779922526        0.01265216535250       -7.27070134892567
H            7.82851278983903        1.12798815196950       -7.58190347425534
H           10.04957751405547        2.92790678889386       -5.12573698477624
H            9.35200457889154        3.01071630401938       -6.75043085332486
H           10.61572120362834        1.84302859353666       -6.38836965443644
H            8.10228531866250        3.99184748879963       -5.20537998916885
H            6.08877489457901        5.03154722112958       -4.28211754954591
H            2.88630201168684        4.39766247119905       -1.09390609082663
H            2.05902901872696        6.67387831688460       -0.63049421648508
H            4.22346920214678        8.47611465009278       -0.88239583641161
H            4.70474952930799        9.50375885137629        1.29964036019716
H            1.17786613226951       11.69618889945308        3.44174533948667
H            2.28614510713760       12.64051472094014        5.58823059458914
H            6.98541578063844       12.05467579182744        5.01732215222108
H            8.11554694042499       13.00997085600473        7.14650260177717
H            8.60469599346331       14.35912516793003        8.96314142782277
H            8.69871876483114       15.36065146022946       11.35302937628690
H            4.41594588260022       14.67671209076405       13.32082164344337
H            4.52995812805466       15.77106098700174       15.67194729843841
H            8.37132519262405       18.37657857743387       15.44470565911221
H            8.99559672075957       19.63051575573928       17.46600856500261
H            6.61655007846197       21.15364979299953       18.45107476901423
H            7.13602701244876       23.55162401307423       18.18298004033968
H           11.62974219346677       23.73617940324131       18.50967599125380
H           13.49019923563644       25.10281823908941       17.69390234051378
H           12.31331954120885       29.24513893842572       16.29285278401175
H           12.85724997825707       27.88129823480651       15.31998595875381
H           13.96340540835561       29.20711845056572       15.67997855864799
H           13.18860462197993       29.54371771928100       18.68020103876325
H           14.84913859418288       29.50130791426536       18.09843937408761
H           14.32495536389719       28.37796871367303       19.35316523781484
H           14.64003666569331       26.28836434369100       16.22897207442955
H           15.23513970982382       26.48100778265907       17.88461350805257
H           15.67071384985602       27.65028765396567       16.64524842848742
H           11.16445114014976       28.65755490582685       18.18731316804747
H            8.72610044350715       29.27995421181666       18.98687364225920
H            7.96391123394604       30.86903842751271       20.41018311150422
H            7.03256804853925       30.22077101640488       21.75748331190844
H            6.45061742494133       31.63559404105009       20.87969202405887
H            7.11180474056848       30.58609109268388       18.01258020867896
H            5.59046324868448       31.35695166758561       18.44988568525751
H            5.58811635642738       29.75489196874398       17.71223074086524
H            4.74043750589094       29.15102074139175       21.33341849959467
H            4.14792460431420       28.96880446462267       19.67559668917252
H            4.24930641690826       30.56357665203045       20.40855637384335
H            5.26383584271896       27.20119065558794       20.39425153633625
H            6.43851768184253       25.06085283368337       20.21359390156334
H           10.47004328832587       23.12214810671781       20.77844944630586
H            9.96206895557505       20.71967245708817       21.03680213488945
H            8.74545867669325       16.87177153370322       20.29667618547290
H            9.06621656506641       15.75025700036682       22.46884572852531
H            6.03935910111173       17.70670143648166       25.27691441367318
H            4.85115724209978       17.35316399525074       27.38731239381701
H            6.63483690972983       14.14434963291388       30.06775963074593
H            5.11247467933693       14.08193935672337       29.18395366432941
H            5.11529529935436       14.40040488733591       30.91880428786685
H            7.52135212402173       16.38525908765860       30.93210231646329
H            6.01212718355170       16.66969722948955       31.79284778508239
H            6.60983141077342       17.86414025499636       30.64085422449101
H            3.70508611875133       16.20445902558556       28.90357756519250
H            4.31736712533787       17.75316293109298       29.50328781355897
H            3.80466794278037       16.50707471013868       30.63275597645443
H            8.25564977091568       15.35591969043845       29.03182877162984
H           10.68692538661067       14.70705482668601       28.24172161323393
H           12.72273295960403       15.01597502123226       29.24330926094695
H           13.87073722719991       15.94169714052978       28.27987883321453
H           14.38225801684810       14.45288352213866       29.07516700279187
H           11.85350539408558       12.76611626349158       28.38482920261047
H           13.50187621926790       12.17742369566854       28.19934272328178
H           12.39550321140540       12.14995793497512       26.82600702233138
H           14.79351060815196       14.96890577182172       26.10095596720361
H           14.18460386628822       13.42031931551624       25.49778257188907
H           15.20940583385581       13.47326878895524       26.92582391105374
H           13.07590493663708       15.19358247165572       24.72878705673398
H           11.23988767118236       16.35610058833847       23.60398655261418
H            7.86789334120222       19.29456960150807       24.47869337741976
H            7.51425731910222       20.40916366180194       22.30665238066799
H            6.09362900111957       17.47514968519358       19.70346197420973
H            5.45840338916723       16.22348633577654       17.68692897322899
H            0.85516450789866       11.33003850805490        1.28105784378449
H            0.38381790932395       10.30031899859841       -0.89609850456600
H            0.26993714903220        7.84334554528815       -4.14373180793123
H           -0.79202749409370        9.16583134227620       -5.93552007119314
H            2.27194227580692       12.41915206932795       -6.79851077199756
H            3.00467125295321       13.93533644222302       -8.57413934356953
H           -0.04432082011897       14.60123754066915      -11.88866507756238
H            1.46988909828394       13.70687710356937      -11.98914955613732
H            1.36088187594554       15.33841826461644      -12.65036123501240
H           -0.25424086169436       16.58491089836985      -10.28330351600647
H            1.14246330997254       17.35172345864046      -11.03235241980944
H            1.12074928270343       17.06442075605652       -9.29228434453519
H            3.51686116726019       14.50076448717029      -10.66514305502275
H            3.37280691081921       15.87878427108604       -9.56381457314360
H            3.30675871839089       16.12571879339498      -11.30316291806552
H           -1.03907162907968       14.47217856798397       -9.85757166787974
H           -3.42388047754998       13.58927970588594       -9.15625861011842
H           -5.39818256652295       14.69137975272409       -8.75549402246288
H           -6.08121901158625       14.40696375038894       -7.15696633000877
H           -7.11007595062936       14.31573502807018       -8.58671193158033
H           -5.11678479335102       12.74290975981874      -10.39210841591967
H           -6.82210967599186       12.33664468432141      -10.23577641364464
H           -5.59114583203890       11.11548996425877       -9.91298525590708
H           -6.93585671477711       12.08049460244847       -6.52359483569126
H           -6.72650780851819       10.72729259510328       -7.64517775679885
H           -7.88052632245461       12.00473197350106       -8.00421062923258
H           -5.05375126255287       10.97960865281857       -6.18666638244867
H           -2.81811373651591       10.56233496533142       -5.28211969611488
H            1.17094530449713       12.65833334703479       -4.52585939571508
H            2.25910237978440       11.33353518435410       -2.75380277271419
H            2.96239670890792        7.81314657435869       -4.62501439988110
H            3.75510616819559        5.52621238577598       -5.09551277206750
