256
 energy: -49.752236607030 gnorm: 0.000810547647 xtb: 6.5.0 (97a52f5)
C           -0.44400507453488       -1.05313470388428       -2.77775588903820
C            1.09145535229769       -0.94285836164975       -2.70632525738659
C            1.61979754144568       -0.62071177823929       -4.11630746407454
C            1.45117332451943        0.20298113977208       -1.74282806988850
C            1.73374095787101       -2.24612540645148       -2.20648649837310
C            3.13484500356113       -2.32111305196115       -2.09338523942070
C            3.77475975240150       -3.45023593625785       -1.64559438246162
C            3.00969210341894       -4.55736887793568       -1.28819262595752
C            1.61179340717173       -4.50718598131362       -1.40104726595712
C            0.97799842214254       -3.35025515795981       -1.85792773208203
C            1.10183169795654       -5.78667453041760       -0.97161698228222
C           -0.19528858902417       -6.28986430875458       -0.86262470181960
C           -0.39939187430917       -7.57248422733976       -0.39101122174117
C           -1.83513880815071       -8.10781874724049       -0.27624764834495
C           -2.64289336141266       -7.20034791384372        0.67026010794526
C           -2.48778993641981       -8.11306779532046       -1.67081980858807
C           -1.87037629246470       -9.54342373429722        0.28221509890261
C            0.72019076124691       -8.34662368597386       -0.02838127865621
C            2.00375872251127       -7.86833800544240       -0.13085819070067
C            2.20443342427014       -6.57689572173296       -0.61134054904811
N            3.38299645092601       -5.82728903637014       -0.80296307123869
C            4.72461546292258       -6.25613686427285       -0.51397322170439
C            5.55908814757139       -5.46960833234495        0.27144372430566
C            6.84826650313325       -5.86431880947563        0.53284905518549
C            7.35133595312023       -7.05536772365615        0.01414302240601
N            8.69861093754416       -7.45737498413540        0.30055037839732
C            9.33338870502512       -6.96464373590909        1.50375037991947
C            9.21589337754416       -7.66127363559641        2.70689091659039
C            9.71972387887452       -7.13489830165946        3.86985810284528
C           10.34243199907062       -5.88317064131593        3.88511910869541
C           10.77398458760970       -5.29624953646653        5.14618663574488
C           10.97074388890432       -3.96274790831714        5.39236242269439
C           11.30090769226618       -3.66822504988261        6.73365216196537
C           11.39205532929100       -4.77024309631889        7.54176014576364
C           11.66460484791780       -4.74547958252123        8.95581881434600
C           12.08574753926469       -5.80482754158440        9.71512106031213
C           12.23586275004484       -5.50419262030007       11.08785874002013
C           11.90889968734069       -4.21420131306768       11.41447098485412
C           11.89088904095227       -3.63213244852094       12.74994287377718
C           11.06078402706025       -2.54129998765738       13.02282407252825
C           10.97609481350582       -2.01545112957395       14.28688254781867
C           11.73724955476504       -2.54362713276243       15.32860993520756
N           11.60599091361182       -2.02110617319391       16.65829639352142
C           10.29238048806626       -1.76911882416467       17.18003569545003
C            9.24204127892357       -2.63276130968921       16.87763136578950
C            7.97962613606645       -2.40081002676165       17.36606652616431
C            7.72514148885192       -1.29537692693202       18.16962151620536
N            6.40309837138257       -1.06227501901212       18.68535734079621
C            5.64187556676406        0.11413665101770       18.53216065973201
C            5.92971166696897        1.31687446407069       17.89264139519290
C            4.97675327592183        2.30594337570893       17.88023837796413
C            3.71793639129452        2.14165084664278       18.49101951696902
C            2.65082284693159        3.24708612949429       18.47262745704790
C            1.39271113498214        2.72666359068788       17.75335375248200
C            2.29646354898310        3.63637671512002       19.91974522495709
C            3.14295233733571        4.50884214065916       17.73781069670150
C            3.43555108958355        0.94399091739244       19.11979580352759
C            4.39162839706908       -0.07237456294512       19.14207587514158
C            4.37755373048344       -1.40591372150627       19.69287102978690
C            3.40904970235023       -2.12059409913093       20.39940318693699
C            3.67308761274219       -3.41147765423538       20.81621311084117
C            2.59489507587117       -4.18312863396173       21.59286195883162
C            2.24642968571898       -3.41375241127364       22.88047974796772
C            1.33754342631470       -4.32072345817552       20.71495505543883
C            3.06954225215928       -5.59537198634661       21.98593579378815
C            4.92658702264325       -3.97838779329060       20.51335747640250
C            5.89065541540598       -3.29051787358977       19.81786702068841
C            5.61824589581035       -1.99128840610012       19.39790160309027
C            8.76867883045264       -0.42544903643220       18.46690328011085
C           10.03291974697510       -0.65891276947069       17.98061740649058
C           12.77121357123298       -1.73063950529702       17.44158735801855
C           13.94199537781149       -1.29081728297364       16.82840108230717
C           15.04763812646975       -0.96768517844245       17.57721944692181
C           15.01959173092665       -1.07737901843692       18.96308232184069
N           16.16301865158797       -0.69871192734597       19.74853475328155
C           16.78517259765150       -1.47177908653547       20.74972979759259
C           16.51896858060750       -2.75587351952414       21.21765986748259
C           17.30229941995656       -3.27215958354524       22.22090245201645
C           18.36652784899250       -2.54544268773338       22.78994715297243
C           19.24281191034293       -3.12391956714695       23.91176056734993
C           20.70087005662770       -3.20758734073175       23.42423711498535
C           19.16106375162315       -2.20688467762681       25.14634852388554
C           18.78707676269212       -4.53606969896642       24.32685639685389
C           18.63075943053365       -1.27413385390666       22.31735426526326
C           17.84527760670502       -0.73352501233633       21.29840184284420
C           17.87837645645861        0.53955112693376       20.62031193053133
C           18.69745150377673        1.66024167126881       20.76609597669881
C           18.48253693877649        2.77748203239655       19.98169151519923
C           19.39084999628799        4.00397917444557       20.15990418022549
C           19.28588062508867        4.50833163336855       21.61115902160415
C           20.84637258988240        3.60675767528439       19.85330056779841
C           18.99279967423245        5.15596205156049       19.21711028388884
C           17.43088046316797        2.75524799145352       19.04483675273876
C           16.61589619459273        1.66104249150911       18.88738283433981
C           16.83900629631593        0.53642650848358       19.67759134921233
C           13.85848419013865       -1.53351599510791       19.57734760800541
C           12.75195661986022       -1.85559464588772       18.82888720129596
C           12.59251555017721       -3.61162921201909       15.05634008368543
C           12.66043700574296       -4.15330168678739       13.79582895859484
S           11.47123063821937       -3.33602737689516        9.96845427356430
S           11.08280064357872       -6.21149123895094        6.60359086331272
C           10.47848476032841       -5.19964649147302        2.67200628901915
C            9.99240100549330       -5.73426329093951        1.50478852636845
C            9.40859292046985       -8.35025668166380       -0.57241128043962
C            9.25775855607975       -8.27017303590896       -1.95533079254403
C            9.90922928267692       -9.15009548056035       -2.78554595883703
C           10.73720422002235      -10.13564732387185       -2.26014795023200
N           11.38097512408589      -11.08725422017410       -3.12502532047049
C           11.29886289118502      -12.49008973086204       -3.01343677866632
C           10.62794590143926      -13.30016714594121       -2.10107601589299
C           10.71033815178972      -14.66416171908917       -2.23892855479047
C           11.44953007041314      -15.26929859439578       -3.27416474792668
C           11.54109919182638      -16.79555910729225       -3.42688613286113
C           10.96914447169529      -17.20491346065772       -4.79670810627278
C           13.01572352690581      -17.22830642704946       -3.33078560429609
C           10.74725997773507      -17.53160492485772       -2.33036159472224
C           12.10875313781431      -14.46063979449813       -4.18041351270322
C           12.03516629100891      -13.07238597423998       -4.05643722976183
C           12.59255475729340      -11.99631244241459       -4.83947540116410
C           13.40300912861947      -11.98508023321463       -5.97550606960644
C           13.80196712803521      -10.78162680104798       -6.52498506762348
C           14.69708123827925      -10.78956562827274       -7.77390310452145
C           16.01321183037034      -11.52063157404307       -7.45073563765686
C           13.96759686160739      -11.51751557349809       -8.91812489669271
C           15.03768508108949       -9.36299271860794       -8.24605571731144
C           13.37640958843080       -9.58465855644728       -5.91612777744281
C           12.57823430683970       -9.57683011484507       -4.79827983964661
C           12.17569969160729      -10.79218367558729       -4.25114774061602
C           10.91225534228111      -10.20095202045858       -0.88230761263341
C           10.26333123819041       -9.31918161546984       -0.05218594187518
C            6.50463724255723       -7.85038124812445       -0.75584684724804
C            5.21432287478696       -7.45565808106490       -1.01851399601414
H           -0.88213092017834       -0.12191086948852       -3.13669655279259
H           -0.86887347613628       -1.25924645020935       -1.79559765261692
H           -0.74898546268393       -1.84543885501576       -3.46105385001760
H            1.16319550416653        0.28921994117657       -4.50525114472828
H            1.39414108390472       -1.43320459050853       -4.80658948022188
H            2.69919775243763       -0.47501715236291       -4.11247360508961
H            0.99246489040068        1.13895220160604       -2.06105432367206
H            2.52822257536396        0.35894707067968       -1.69677410209654
H            1.10186415052639       -0.01834083245180       -0.73453818973273
H            3.72368309391058       -1.46287639254722       -2.36664196117579
H            4.84659137724693       -3.49569728138430       -1.57180391021859
H           -0.09308987959485       -3.34079842927938       -1.92837811321348
H           -1.02446568085197       -5.66862895028134       -1.14597976769610
H           -2.69909318462514       -6.18083162740815        0.29086211155592
H           -2.18105787201331       -7.16534295008430        1.65673223220717
H           -3.66215310364897       -7.56792638217470        0.78757165600027
H           -2.53661809196023       -7.10849843173955       -2.08916422186272
H           -3.50394064713060       -8.50432078942501       -1.62470645916645
H           -1.91737352912717       -8.73520023657211       -2.36018447091996
H           -1.43069357798140       -9.58794248973395        1.27835829571319
H           -1.32968759194516      -10.23110353571817       -0.36765284635302
H           -2.89652670125789       -9.90260715684433        0.35954948038794
H            0.57282634306252       -9.34469220337104        0.34358511183361
H            2.84950850047852       -8.46571620916640        0.15927355752712
H            5.17477054946584       -4.55053712651738        0.67849947872851
H            7.48602119328682       -5.25104147668014        1.14376066353531
H            8.69882109401849       -8.60503718059477        2.71055895150108
H            9.61070305941635       -7.66869587100976        4.79777741550756
H           10.82907130770545       -3.19921643000992        4.64361110572995
H           11.45413315680400       -2.66591749676237        7.10240260255370
H           12.27052332891114       -6.78148583315431        9.29564720774924
H           12.53144036450431       -6.23769149865041       11.82167496137246
H           10.46732396439746       -2.12995012916014       12.22499836842829
H           10.32049601753758       -1.18715298320926       14.49230591465614
H            9.43826221194016       -3.48902670525610       16.25633231334761
H            7.16808384614605       -3.06554478390378       17.12612231515095
H            6.88394479267209        1.45029760728183       17.41499758935934
H            5.20540126714557        3.23217022487876       17.38424593580564
H            0.97126927208772        1.86319348294344       18.26652964300176
H            1.62948188448330        2.42664005049129       16.73279590659101
H            0.62221970677744        3.49614991536310       17.70883750692755
H            1.88790959418949        2.78951008302496       20.46966468686813
H            1.55436031140490        4.43431143382059       19.93847491928425
H            3.18111789425379        3.98558778331269       20.45176888070112
H            3.38523418677192        4.28869568549492       16.69837434358615
H            4.02716204855422        4.92449360593022       18.22048255993539
H            2.37389315105340        5.28117549051498       17.73922162711568
H            2.48431965110243        0.78006033018521       19.59108193209423
H            2.46450994205648       -1.65539586182984       20.61205433417279
H            1.84949508237950       -2.42447318116805       22.65645568613989
H            3.13129949467431       -3.28613791081004       23.50360844854212
H            1.49706955382901       -3.94843160970244       23.46386217474818
H            0.92900867593293       -3.34572230185185       20.45233497459854
H            0.55869884898616       -4.87949594631034       21.23354327188413
H            1.57051937359118       -4.84610538123237       19.78904567352149
H            3.95234891915094       -5.54967284237681       22.62322557197428
H            3.30793945721839       -6.18937665484437       21.10395346678267
H            2.29264148420672       -6.12409023168700       22.53806708250719
H            5.14368630442627       -4.98138949559307       20.83448383873371
H            6.84674879662676       -3.73129204599929       19.59843352899180
H            8.57108126438112        0.42784867862919       19.09208289958794
H           10.83740635043525        0.01915095323629       18.20574499325821
H           13.96191008434917       -1.19310328901131       15.75708496358069
H           15.95098277216482       -0.62771526085318       17.10134601172246
H           15.71346243435084       -3.32307344669191       20.78645401031497
H           17.09056515129054       -4.26417381888883       22.57773300980131
H           21.08907438135385       -2.22316156982718       23.16562728310259
H           20.77501770240895       -3.83924322507249       22.53923023614275
H           21.34640597833613       -3.62864763893567       24.19478906633895
H           19.52985930032937       -1.20654224431077       24.92316499458622
H           19.75638949959460       -2.60487939979646       25.96788886704673
H           18.13086211362890       -2.11477946048870       25.48967492041715
H           18.85136741413996       -5.23156871656788       23.49037995176877
H           17.76036828658940       -4.52548696895792       24.69211013166265
H           19.41685744405444       -4.92552459674280       25.12663963353003
H           19.43675898266947       -0.69168871246427       22.72347508876085
H           19.48745141288543        1.64152159917058       21.49365725347731
H           19.61301217464811        3.74873491142512       22.32000176860888
H           18.25633325752969        4.77084178271312       21.85352030638800
H           19.90435756131556        5.39280715893771       21.76258810485778
H           21.19564550847447        2.82826896625309       20.53043392240102
H           21.51415776847415        4.46187332610325       19.95608518739167
H           20.93554598207105        3.22921775161868       18.83491089189557
H           17.97117922324029        5.48393462840377       19.40759704304005
H           19.07217001877313        4.85453520451951       18.17290079459504
H           19.64634597634978        6.01620760836802       19.36122648467451
H           17.25251645089856        3.62017290009676       18.43137505034741
H           15.80914825267327        1.66040257584328       18.17636523622759
H           13.83484976048457       -1.61220855938563       20.65030886227726
H           11.85477451526990       -2.20727298632172       19.30750490757154
H           13.17969684754551       -4.02081770235144       15.85993011328260
H           13.31576108714216       -4.98443106224904       13.60159935122770
H           10.97059899421062       -4.24284648923576        2.65876428927635
H           10.08921949033243       -5.20054963264339        0.57524033212751
H            8.62345590658894       -7.50395221133891       -2.36570962279859
H            9.77434240162860       -9.09987172637805       -3.85198978387666
H           10.05334644537967      -12.84964361074764       -1.31157266616366
H           10.18969460356195      -15.28354681891600       -1.53073766031923
H           11.53322772887612      -16.75471173618813       -5.61257010054046
H            9.93144033923038      -16.88576882185345       -4.89123810612941
H           11.00275332750281      -18.28653597158447       -4.92606018662166
H           13.61403049121843      -16.77615577047510       -4.12079612381178
H           13.11132882635965      -18.31036929762021       -3.41887505655007
H           13.44296775683530      -16.92830829384256       -2.37419734137510
H            9.68941215976868      -17.27282043565403       -2.37053083615692
H           11.12765170343932      -17.28691061371517       -1.33888001966815
H           10.82626861568938      -18.61147077273112       -2.45542499499659
H           12.67846515580002      -14.88605686159374       -4.98555438553678
H           13.71013254933743      -12.91808660447740       -6.41021015669603
H           15.83162514498343      -12.55534685043092       -7.16274022873599
H           16.53328672065102      -11.03082021361802       -6.62777266775710
H           16.67806240937726      -11.52724869114927       -8.31425645817748
H           13.75149086351506      -12.55237903358577       -8.65575955572457
H           14.57220303435074      -11.52356213192032       -9.82487172693366
H           13.02222503390963      -11.02567777981817       -9.14607768154031
H           15.57594478957923       -8.81217333192303       -7.47504583899987
H           14.13545910059797       -8.80870807403195       -8.50362921571725
H           15.67089152117673       -9.39062482896360       -9.13276592713107
H           13.68377825621610       -8.64249981333978       -6.33334533821103
H           12.26624501045799       -8.65666598092325       -4.33732680010335
H           11.56715385603442      -10.95313803283355       -0.47803061155151
H           10.39885911915287       -9.37551177245814        1.01308810690589
H            6.87027108878217       -8.78849962125110       -1.13463851983210
H            4.56958561872191       -8.06448819893516       -1.62810652245687
