253
 energy: -49.429260749593 gnorm: 0.000787496275 xtb: 6.5.0 (97a52f5)
C            2.54328406766505       -3.23269100943724       -1.08145255608670
C            3.97265478901886       -3.39624331483487       -0.53290060358167
C            4.50023227689691       -4.80273176751255       -0.87215279252615
C            4.87989132683823       -2.35946651189290       -1.22316161732689
C            3.95248411079722       -3.21473478370720        0.99268002756069
C            4.67468269862223       -2.18971997852125        1.63429044224677
C            4.65105287225231       -2.02194731863680        2.99724498110628
C            3.88591441093601       -2.89243052244024        3.76938753607319
C            3.16660422063965       -3.92586787161655        3.15025130947212
C            3.20041254872426       -4.08028934518335        1.76380197103573
C            2.49488314761886       -4.66413432637059        4.19173313459363
C            1.64523249797039       -5.77035452249556        4.15711111682613
C            1.12276656329896       -6.27421746267640        5.33278175209769
C            0.18864681016748       -7.49268308347749        5.27429750948573
C           -1.05047900661481       -7.14198494686847        4.43022473577623
C            0.93552913042441       -8.67605350200034        4.63150234041263
C           -0.28411691434445       -7.92210101679027        6.67642339562270
C            1.46114127771701       -5.64709368693485        6.54781377719750
C            2.29538020009864       -4.55722849856427        6.60028590958185
C            2.82608246172958       -4.05833528203258        5.41350377158319
N            3.68122614072815       -2.96573981511363        5.16264166938646
C            4.23045426725150       -2.07106187873476        6.14473994734579
C            4.12608677727381       -0.69439655697682        5.98024342038940
C            4.67251917764704        0.16305973363143        6.90382923952548
C            5.34076638126275       -0.32722104479092        8.02356125430892
N            5.94318534472818        0.57386843809176        8.96298261108821
C            5.36699762250054        1.86611355760245        9.18968002140848
C            3.98969962460106        2.01946032240450        9.34588725391896
C            3.44289783664113        3.26278238239770        9.53442952814548
C            4.23802453674744        4.41393388423319        9.54283119269017
C            3.63250606431787        5.74315511636071        9.65901694517546
C            4.22892250580552        6.86266883007869        9.10806870271717
C            3.64802164641680        8.13334771637248        9.15848112004072
C            2.43757973321805        8.37959530001882        9.77973324993192
C            1.83717925876090        9.71648544155597        9.79378355422553
C            2.07280699700964       10.62919458219664        8.75810219043085
C            1.50314459951985       11.87671815499820        8.77296708606478
C            0.69206584007497       12.27962556852413        9.83375835943884
N            0.09430999660414       13.58326130727316        9.83840817470562
C           -0.54396592428382       14.06863512915705        8.64788834247852
C           -1.26359401223931       13.19618106939218        7.83469429704478
C           -1.89742920940809       13.65227116597620        6.70496821181180
C           -1.82824441584137       14.99429405692924        6.34825008799338
N           -2.51528284993284       15.46971836465798        5.17797645645675
C           -1.94865838221816       16.19204694520576        4.10839854897758
C           -0.64777951089232       16.63629076218334        3.88749049424199
C           -0.36672223517234       17.31290544228972        2.72572810287010
C           -1.35051165568123       17.56914489644253        1.75056798341210
C           -1.03338526195121       18.32018137322051        0.44810416086153
C           -1.34554113953024       17.40872033711906       -0.75316320858721
C           -1.89758458022263       19.59225020562687        0.37131606113546
C            0.44855146257873       18.73455621177290        0.36996482225005
C           -2.63948872290437       17.12395149840427        1.97389080192882
C           -2.94334735534517       16.43449357664154        3.14838237640894
C           -4.16701753615165       15.84862020679687        3.64017622652574
C           -5.45866772326008       15.78997666167410        3.11483431984114
C           -6.46216352588069       15.15585353563934        3.82249046812315
C           -7.87832389060514       15.10093536466357        3.22881061127488
C           -8.39844774373769       16.53517134259927        3.02071715685511
C           -7.83462935013224       14.36416973695824        1.87742706384131
C           -8.86108917544801       14.35815399418783        4.15444702661510
C           -6.15176884888409       14.58088525085706        5.07030033683520
C           -4.88637299058462       14.62803343380964        5.60183701327984
C           -3.87802055843179       15.26356444122410        4.88223559340082
C           -1.09840811352952       15.86597299199758        7.14927196520866
C           -0.46666318634917       15.41063993024706        8.28175210564480
C            0.14442934345141       14.39355473730839       11.02067459969623
C            1.24499160745198       14.32941238929878       11.87219794044099
C            1.32062052803672       15.13361893987610       12.98339662771246
C            0.29631981129456       16.02538332797441       13.28174847438970
N            0.39498241224307       16.89612502741645       14.42161941237050
C           -0.57700429548781       17.07173316707021       15.42734432326128
C           -1.81530781032335       16.46630153011098       15.62387243215080
C           -2.56577078905620       16.82974227448621       16.71527334775331
C           -2.12266936348983       17.79332800562835       17.64230121208233
C           -2.96445158264292       18.20162183371087       18.86123055221725
C           -2.17813424995459       17.89295222455213       20.14863374271606
C           -3.26690521753250       19.70970822692953       18.78787796294768
C           -4.30311201632553       17.44067491360054       18.91612094709944
C           -0.89025226984877       18.38672424655212       17.44594270553510
C           -0.11344342901557       18.02855330148948       16.34342693235587
C            1.18632850393852       18.46203868010183       15.89070387690610
C            2.09490434185986       19.39299924347819       16.39620985924141
C            3.28499811778534       19.62463378929040       15.73296808342723
C            4.27174137795353       20.65594345703687       16.30195903421093
C            3.59014861383128       22.03561775916736       16.35508475930456
C            4.69095850494602       20.22992575698516       17.72102308612670
C            5.54133635142457       20.77497842889918       15.43681677019478
C            3.55121696747722       18.90880031384457       14.54946685060533
C            2.66928739024478       17.98859374611316       14.03813526610591
C            1.47460919331729       17.75434089768182       14.71389164317007
C           -0.81220432243294       16.07926506516004       12.44385255897114
C           -0.88776001034830       15.27595068368073       11.33160944225723
C            0.45705032210996       11.37865703572704       10.87232528104364
C            1.00276117275165       10.12065803037627       10.84149159074211
C            1.77561322314532        7.25958803707029       10.40303256631342
N            0.63052019714510        7.27195569280068       11.04924854270796
S            0.29352300234538        5.73692566280717       11.53400057699233
N            1.63150539432914        5.01143344823572       10.91174713881886
C            2.36521808957369        5.93071418614902       10.32336420059268
C            5.62184810017063        4.24983287129930        9.40244965374482
C            6.17269872985861        3.00376652332441        9.24129173783228
C            7.15970840908797        0.21247028672098        9.63402205727260
C            8.15611966889026       -0.50711410672278        8.97819609334718
C            9.30891414611001       -0.86471554657397        9.63457773734569
C            9.50198915737127       -0.51505897251236       10.96661543595974
N           10.69692778739602       -0.91216499217842       11.66053810374412
C           10.75107385126365       -1.61844132227001       12.87925315228362
C            9.73973037501373       -2.10179548698194       13.70515934985165
C           10.08454225156168       -2.78482008523312       14.84562150451208
C           11.42715449575598       -3.01417077590618       15.20472991876187
C           11.81122098260393       -3.78389832582428       16.47790197427773
C           12.61711253612198       -5.03726260579426       16.08976773429799
C           12.66641674555112       -2.87741741812268       17.38221068492290
C           10.57088934665282       -4.23204307366797       17.27470805735863
C           12.42696276222859       -2.53629306487257       14.37902337230735
C           12.09516007817794       -1.84028570154221       13.21585603840332
C           12.90067617592790       -1.24959224108288       12.17439593187810
C           14.28126368213031       -1.16129668719873       11.99147223543148
C           14.78885123979335       -0.51508060492886       10.88044839899568
C           16.31175276005042       -0.42799785576647       10.69586665142419
C           16.92903865150386        0.30844512786739       11.89915895461482
C           16.89405769763343       -1.85039842023464       10.60453733919999
C           16.69234179144165        0.33589457628261        9.41303115340345
C           13.88923257073724        0.04424251589269        9.95194659913947
C           12.52780658138318       -0.03431132460937       10.11509718327961
C           12.02188227003643       -0.69029631967280       11.23406366531801
C            8.51374233534551        0.21202468187617       11.62091158024293
C            7.36233185893710        0.57280313097064       10.96429771581904
C            5.43175826266405       -1.70710097416752        8.19206020162213
C            4.88693876356133       -2.56483881581951        7.26684956161439
H            2.52704338732268       -3.34020194493544       -2.16582645842576
H            2.14635774272884       -2.24846641410629       -0.83354234344879
H            1.87036741235530       -3.97990109621866       -0.66243621068927
H            4.54647639848779       -4.95236947477912       -1.95062937592902
H            3.85865845447121       -5.57862099026183       -0.45641506851158
H            5.50237785149924       -4.94528049745644       -0.46840728701884
H            4.88419036304861       -2.50842346287785       -2.30281636599540
H            5.90908603520264       -2.44517464100940       -0.87527631245732
H            4.53200024950844       -1.34437760638034       -1.03320944174667
H            5.26654558223339       -1.51288102407388        1.04450689343039
H            5.21496671148842       -1.24080619287910        3.47487506209105
H            2.63752085101560       -4.87481439936345        1.31031225154618
H            1.40468526364523       -6.21769369085859        3.21064597941507
H           -0.77390317427953       -6.88291867440984        3.40900122091830
H           -1.57990445215416       -6.29155549642507        4.85921928093743
H           -1.74243039600093       -7.98270349829571        4.38482155728743
H            1.24451628787256       -8.44425450840598        3.61307314100168
H            0.30262892897704       -9.56242167555719        4.59339374371092
H            1.82913947825944       -8.92358540348183        5.20402271792809
H           -0.84156741011879       -7.12317975526148        7.16470808295809
H            0.56045298245105       -8.19388616051700        7.30918747289395
H           -0.94069653939763       -8.78975483952467        6.61355679878212
H            1.05531470727988       -6.02720764775246        7.46813830830381
H            2.53745607151658       -4.08145781218261        7.53372542778014
H            3.60554192207310       -0.31212444008245        5.11950000476690
H            4.60236016437315        1.22761298821203        6.76471247336426
H            3.36464636374140        1.14368450818984        9.32810066593001
H            2.38243424132510        3.36765310407710        9.67537174729423
H            5.16152430249769        6.74393448611033        8.58492045243338
H            4.17282049670697        8.95832775971202        8.70927598702377
H            2.68441139106944       10.33245601755762        7.92401891545432
H            1.67973392846317       12.56761783431144        7.96693825636355
H           -1.32477515481469       12.15876259051749        8.11354682861218
H           -2.45227679188375       12.97668496435393        6.07743670205597
H            0.11387882505583       16.43849678456648        4.62043895100822
H            0.64002793662306       17.65300677873386        2.56140516517966
H           -2.39847103034294       17.13087665113472       -0.77727980533110
H           -0.75867471118962       16.49185453278301       -0.70299309756751
H           -1.11173272757305       17.90829476246819       -1.69308192326682
H           -2.95962128648545       19.35032382601534        0.36785663253143
H           -1.68178478957275       20.15635436089253       -0.53583446438116
H           -1.70482203602458       20.24038910900528        1.22588423274990
H            1.10215149994969       17.86316987841781        0.40190031411765
H            0.71441360961556       19.39886993213831        1.19183644702498
H            0.65264060906620       19.26448450497142       -0.56030048961976
H           -3.41553441882204       17.29742533436669        1.25177125875548
H           -5.65831752461390       16.24241302176321        2.16132040092545
H           -7.76715327289943       17.08911509282212        2.32711892726654
H           -8.41556096791630       17.07889689104379        3.96501109171149
H           -9.41059677662009       16.52815193781873        2.61673084848411
H           -7.19396044851196       14.88130228621112        1.16430111230673
H           -8.83008550328031       14.29268678166797        1.43965079092122
H           -7.44771923709591       13.35318101487833        2.00306294825846
H           -8.94184431713454       14.85462442630802        5.12114506661855
H           -8.54439902251036       13.32834522735048        4.31791746196357
H           -9.85826261123407       14.32962160549439        3.71547067155733
H           -6.92566239725900       14.08872525327603        5.63159627846654
H           -4.66370158117064       14.19246868516634        6.55952086260766
H           -1.04968070062997       16.90524424698763        6.87450834057481
H            0.09956356021217       16.08600144502615        8.89897339339691
H            2.04455228698245       13.64899603165402       11.63688356219226
H            2.17213276841670       15.08232423014224       13.63939261554813
H           -2.16098163050464       15.72323091262937       14.92759106561348
H           -3.52092065439433       16.35791229331678       16.86109696074920
H           -1.24374702016395       18.45147593971418       20.18624961860365
H           -1.93617322460354       16.83197709230387       20.20648199790978
H           -2.75868101867284       18.15556653723556       21.03276683618181
H           -2.35096634088832       20.29900686165164       18.80276183828208
H           -3.87999382724956       20.02629814843943       19.63143563113093
H           -3.80450404653568       19.95003556886726       17.87093903203798
H           -4.14089727686275       16.36559752220887       18.98965754753097
H           -4.90570590840285       17.64177737563180       18.03070931482021
H           -4.88501137404949       17.74537303246240       19.78586575917648
H           -0.51783080482763       19.12328952888276       18.13336444353166
H            1.85475170082195       19.92406006849387       17.29847001331731
H            2.71316328390471       22.01991601493605       17.00095919692645
H            3.26790400784841       22.34391454117996       15.36074487512610
H            4.27284525162974       22.79349015094598       16.73883437129441
H            3.83349615415070       20.18482878568127       18.39121548977449
H            5.40722272572642       20.93397472487582       18.14406455660499
H            5.15559625563764       19.24431184981745       17.70514301476232
H            5.29818015944804       21.09680763750283       14.42449306880109
H            6.06958724044751       19.82341604135095       15.38175037954974
H            6.22844924304632       21.50848648299726       15.85837657588329
H            4.47182544418941       19.08467164750604       14.02242217026344
H            2.88010221655080       17.45589559233925       13.12811538504246
H           -1.60148612280605       16.77437155110679       12.67155346918643
H           -1.74756011639623       15.31875080457956       10.68619375894234
H           -0.18126984272516       11.67950516637375       11.68475231756655
H            0.78678985575621        9.41994191989306       11.62799114584151
H            6.26152129599407        5.11402427742653        9.44241162100420
H            7.23683859398777        2.88811097550197        9.13103093579618
H            8.01049993311597       -0.77564320451853        7.94650330423953
H           10.07206960512448       -1.43259071461042        9.13148471121845
H            8.71081037865094       -1.94111618402167       13.43696383576577
H            9.29844342152656       -3.15539390281954       15.47879678426433
H           13.53688086050208       -4.77211017113663       15.57000482075554
H           12.03410225083411       -5.68042093348953       15.43100651321646
H           12.88859837553899       -5.61565288272823       16.97261207777127
H           13.58756397399702       -2.57652469980388       16.88485683986645
H           12.93856880017131       -3.39124201009795       18.30394469436788
H           12.11908453089843       -1.97348627932950       17.64850784632527
H            9.94232314490611       -4.89649142179568       16.68234878665985
H            9.97401398165183       -3.37533871017487       17.58665671022665
H           10.86460515063269       -4.77319516966106       18.17400642793397
H           13.46195048879016       -2.69660608503238       14.61751056192617
H           14.93644560377956       -1.59854898584685       12.72175828172605
H           16.73797182514421       -0.22311518867813       12.83045461905236
H           16.50975980559252        1.30986560249952       11.99337892956963
H           18.00879049166348        0.40369239923450       11.78620807459258
H           16.69883548176118       -2.41763024511529       11.51372185155943
H           17.97322939302570       -1.82139874824868       10.45535229702209
H           16.45219558554825       -2.39396632785898        9.76973927038181
H           16.31449084607793        1.35771440346187        9.43791337783891
H           16.29496863855234       -0.16024138759605        8.52791482819245
H           17.77528735401687        0.38845486017291        9.30190232852544
H           14.27344286213730        0.55235456136156        9.08569265176351
H           11.85105739373672        0.40447328937319        9.40378416040420
H            8.66916121612181        0.49202596696580       12.64826191184029
H            6.59505835877591        1.12980809028183       11.47306835006570
H            5.93715034305576       -2.09350771805585        9.05978887954535
H            4.97528571833133       -3.63013405372917        7.39022397278385
