249
 energy: -48.284367350056 gnorm: 0.000684842384 xtb: 6.5.0 (97a52f5)
C            2.85569276498222       -1.45784052779933       -1.66774187371379
C            4.16057435277026       -1.15761063801555       -0.90511927607533
C            4.13437534295517       -1.93701858824238        0.42285487012859
C            5.34594695792797       -1.63579894468126       -1.76334469767450
C            4.32074214567671        0.34208964340597       -0.61137498511327
C            3.37419892692830        1.29344657563513       -1.03916306133613
C            3.51517724744811        2.63404288377636       -0.77590696986660
C            4.62881956340122        3.06636572713358       -0.06007355050535
C            5.58948146108520        2.13602402831298        0.36518435037948
C            5.42980559147213        0.77720954344137        0.08876163159970
C            6.62241034184438        2.87103870960279        1.05333311905052
C            7.80360531934836        2.46649322630688        1.67697416818251
C            8.62132038893854        3.40414331626785        2.27810013691427
C            9.92098116474705        2.94029669362752        2.95402194825431
C            9.58233366054059        1.94553900178804        4.07955667704445
C           10.81973187510475        2.25371042435637        1.90895329305576
C           10.70255396342238        4.11843936964817        3.56662818645126
C            8.23346976615980        4.75808688457776        2.24996154249788
C            7.07495692982005        5.17405185254884        1.64033620165750
C            6.25881978020566        4.22646295866613        1.02771732185271
N            5.03241986840262        4.35559325267727        0.34411012714777
C            4.31810169862716        5.57838748176813        0.09531566804012
C            2.96175926626846        5.67316570581588        0.38562818974524
C            2.27075027913692        6.83188686913669        0.12666032824237
C            2.91256642873436        7.93583815933451       -0.42976678372014
N            2.17737538212699        9.13386267394992       -0.71079133336326
C            1.02237302845185        9.46604025118486        0.07641950480083
C            1.08605213210532        9.47749944368839        1.46946423149297
C           -0.01783582546722        9.80518629815600        2.21653123778383
C           -1.23706400391912       10.10784411970195        1.60341231730442
C           -2.40876229230287       10.43772867022846        2.40829566665796
C           -3.71263419884800       10.17645820806673        2.08204597336201
C           -4.64553710847762       10.59726951457635        3.05715659422377
C           -4.07978349185708       11.21342953153911        4.14116951036140
C           -4.79266041790635       11.77543915058130        5.28288319733231
C           -4.26004674419724       12.86265884588194        5.98128626524204
C           -4.93468616192157       13.42272905860215        7.03700576877866
C           -6.15809871428158       12.90089333544924        7.45551499835924
N           -6.86709678314865       13.49451386223292        8.55239073121446
C           -7.01661162796600       14.92099079704039        8.60689207770056
C           -7.22201110230673       15.64951636587170        7.43754724202305
C           -7.38435688921284       17.01280713828636        7.47998140934665
C           -7.33893820906209       17.69166326649879        8.69229229267971
N           -7.52421162194143       19.11748547856667        8.73408626730361
C           -6.62816701078766       20.06022637470655        9.27662935630387
C           -5.38588526710761       19.90122461228087        9.88458292154225
C           -4.70666817575560       21.01809762426120       10.30654943213865
C           -5.22558027316863       22.31754810275739       10.14220773957636
C           -4.46353612679849       23.56661926430725       10.61128324381221
C           -4.21518471248936       24.49409581995566        9.40712529764649
C           -5.30310694223149       24.30525251099549       11.66953811930920
C           -3.10083452467407       23.20830056286703       11.23482293099542
C           -6.45906468367303       22.46930100968185        9.53794478153917
C           -7.16282857940250       21.34600173692297        9.10124659750012
C           -8.43240191189160       21.19537935517911        8.43209085467794
C           -9.39056916537826       22.12037875613223        8.01440036255387
C          -10.54096968228292       21.68426221933425        7.38484174389718
C          -11.58867988818105       22.71652030071517        6.93994001804723
C          -12.11369463413686       23.47000140464746        8.17573053690253
C          -10.93964489428482       23.71355483279060        5.96201591318039
C          -12.78484085839722       22.05267250131091        6.23073483198029
C          -10.71925174010988       20.30179581045776        7.18078278204206
C           -9.78668417764700       19.37750194478580        7.58388730978192
C           -8.62791726340046       19.82300409408758        8.21409876341685
C           -7.12187560594457       16.96965159699506        9.86078952535855
C           -6.96499017319398       15.60485324982321        9.81939982745320
C           -7.42958612843385       12.66349797009851        9.57720749963149
C           -6.78109648262720       11.49555197171624        9.97162921825720
C           -7.29867619431681       10.70947535448445       10.97246089734613
C           -8.48424674990740       11.06312355235480       11.60680918578885
N           -9.01143376599884       10.25234905717346       12.67133395115221
C          -10.31016344309096        9.70951792464377       12.74305551423917
C          -11.38298448792478        9.77553267980119       11.85810242365102
C          -12.54986477741194        9.12681778118849       12.18112652061468
C          -12.69491890801312        8.39595715422976       13.37674506806663
C          -13.99899249582741        7.66664445572964       13.73520524466529
C          -13.71160123781786        6.16281739933809       13.90089047495708
C          -14.55391887529150        8.23632680696435       15.05365618967189
C          -15.07204915514915        7.83722553859034       12.64268078907180
C          -11.62628547383047        8.33224373063060       14.25054874375654
C          -10.43238608782495        8.98408140578188       13.93831609415302
C           -9.17072763023539        9.08313242240775       14.63136595284234
C           -8.72690325341525        8.57324260808239       15.85254032321765
C           -7.44158991000821        8.84020127398367       16.28446798229204
C           -6.97316819562274        8.27747328034629       17.63544575906796
C           -7.86590455984106        8.84077920839749       18.75635322211780
C           -7.07830363925365        6.74130291149013       17.61181855459082
C           -5.51155622594616        8.65792058259230       17.94108626489433
C           -6.60424981708114        9.63002635157818       15.47232571342749
C           -7.02307981395707       10.13741690091848       14.26666068052988
C           -8.31733780580188        9.86110645135947       13.83405215462011
C           -9.14178993757728       12.22110422336665       11.20648522265665
C           -8.62240648978298       13.00961370546473       10.20794999468839
C           -6.68408546809906       11.80220012103475        6.77636094659619
C           -6.02183240635185       11.25737523872320        5.70408601990728
S           -2.34252209590449       11.24052844511223        3.95784721576668
C           -1.29715896598594       10.08945687830782        0.20610619977263
C           -0.18593265009162        9.78770838291085       -0.54114370080702
C            2.58548187105751       10.02202402877679       -1.76270024569426
C            3.07454788049720        9.53557810324469       -2.97302260655755
C            3.49534413995687       10.39941466837284       -3.95586207850291
C            3.44077411215110       11.77499072594816       -3.75859126510130
N            3.92687043865050       12.68074411526271       -4.76487910003014
C            4.92528240799354       13.65784945135804       -4.57840110496348
C            5.67780865437244       13.99664296856829       -3.45709851246920
C            6.61334315123409       14.99648901038827       -3.56374878642506
C            6.83686072454617       15.68781167261760       -4.77066582017537
C            7.88646263955016       16.80394433121560       -4.88869260511092
C            8.93322451019018       16.40765946726435       -5.94618064415706
C            7.19263731438509       18.11209907794190       -5.31103610952736
C            8.61548838116963       17.05110168664275       -3.55375847931133
C            6.08979118017174       15.34448676275611       -5.88158154749945
C            5.13489981582331       14.33024514036780       -5.79204272180478
C            4.23444906231006       13.75409779942183       -6.76137314811720
C            4.00324995957198       14.03193907401204       -8.10936007862479
C            3.05345633239882       13.31140412242782       -8.80817675620956
C            2.80960561291758       13.63560172439229      -10.29025594280244
C            2.36349118947169       15.10352707241446      -10.42298920739548
C            4.11358107729237       13.41714959373633      -11.07948495579728
C            1.71579381987811       12.73949589309602      -10.90238627926654
C            2.33692704120009       12.30272935600285       -8.13435043787403
C            2.55221493107259       12.01442078792818       -6.80867417227197
C            3.51024392014514       12.74363099236672       -6.10968639712091
C            2.93555362498270       12.26353083545134       -2.55908154084294
C            2.51004290817923       11.40075088755164       -1.57863417815376
C            4.27467450700803        7.84214178904323       -0.70646345713519
C            4.96516072201223        6.68150497436920       -0.45077701596040
H            2.75713990459800       -2.52639258815817       -1.85878482057346
H            2.83749985017734       -0.94910985584527       -2.63127612573683
H            1.98436062763962       -1.14467015439439       -1.09298839886504
H            3.99983990485154       -3.00403521189252        0.24632141827603
H            3.31535488421722       -1.59347685826068        1.05436988564972
H            5.06219561280576       -1.80649605136182        0.97830616619669
H            5.25225411710690       -2.69490471301821       -2.00275000410791
H            6.29317890848680       -1.49369609422919       -1.24454697436621
H            5.39132976469724       -1.08064645416271       -2.70003055186480
H            2.51118395259269        0.96729627207480       -1.59152974228834
H            2.79014753433226        3.35089145932155       -1.11761032825516
H            6.17682837075378        0.08223484246427        0.42460150528190
H            8.06393744477388        1.42436004878494        1.68197374286484
H            9.07644601109193        1.06302216459464        3.68997046706902
H            8.92732231923477        2.40800537414091        4.81759190520461
H           10.48546603746852        1.61287903433422        4.59092353849174
H           10.33373249261998        1.37692984237945        1.48278297467294
H           11.75960609965367        1.92931743736719        2.35525243095078
H           11.05177055537937        2.93735731700639        1.09258849647770
H           10.11333351516367        4.62595692887408        4.33005679944395
H           10.98117682991088        4.84422824053260        2.80294136297063
H           11.62080041708278        3.76892814710563        4.03850541432581
H            8.85911060181537        5.49554001734847        2.72008604839563
H            6.78573812695535        6.20975923536839        1.63449886508339
H            2.46377261191754        4.82571471072798        0.82366782121095
H            1.21892222828068        6.89705389488263        0.34347341479367
H            2.01996012593117        9.23724169230716        1.94701756531038
H            0.03910950299244        9.82197689767537        3.29106774055997
H           -3.99792660380378        9.67212097140000        1.17180281869794
H           -5.71134735465942       10.47169922533820        2.94545688365018
H           -3.31340629287340       13.26618615848669        5.66643961373119
H           -4.52499775162797       14.26711925201854        7.56342384307074
H           -7.26240655109782       15.12424285668218        6.49934359771100
H           -7.54307040808368       17.57477429284716        6.57602817997909
H           -4.97655222256954       18.91437484285500       10.00792939119496
H           -3.74736936652149       20.88861458421164       10.77474520967706
H           -5.15202816252586       24.82534585272114        8.96100960683369
H           -3.64137157069985       23.97920998512211        8.63692714875728
H           -3.65776936145953       25.38143175046039        9.70661003435482
H           -6.26070596031478       24.62647423673910       11.26164131888432
H           -4.78166402651833       25.19051827588312       12.03307738762009
H           -5.50347637373900       23.65723350501938       12.52249500176647
H           -2.46392744676754       22.69304928614154       10.51614762882092
H           -3.22450663717492       22.57077063365608       12.10988681001530
H           -2.57454918795707       24.10731236768398       11.55542896790906
H           -6.88620302108417       23.44438859281886        9.39451563585556
H           -9.22245443112286       23.16630325300985        8.19216513934372
H          -11.31099489235468       24.00050817208505        8.68655052271810
H          -12.56166648272004       22.77664253269241        8.88728488836599
H          -12.87108105565571       24.20144140520237        7.89443430946296
H          -10.12179019404254       24.25708326962706        6.43338030970618
H          -11.66691551375541       24.44587846810217        5.61186234129219
H          -10.53859176965890       23.19362593151615        5.09223822642041
H          -13.29781509195636       21.35625801600328        6.89364157863033
H          -12.46275768900525       21.51229662097237        5.34082438713664
H          -13.51141459027374       22.80170937291879        5.91596877250602
H          -11.61249210270769       19.95111710305560        6.69557820718482
H           -9.93601262858972       18.32392556956211        7.42798894372523
H           -7.09123478072551       17.49704385344602       10.79831785184187
H           -6.79469089888789       15.04747634322310       10.72388510153585
H           -5.85888523667673       11.22501843909326        9.48782661955269
H           -6.79629508230692        9.80753285422636       11.27617601873609
H          -11.28147139674651       10.32415812004909       10.93872001343419
H          -13.37457931213865        9.18182456204663       11.49332651902793
H          -12.99800705169238        5.98126587467497       14.70358129505905
H          -13.29581197923691        5.74728316135623       12.98324111737008
H          -14.62374099098009        5.61484617776083       14.13652041386863
H          -13.85222889852849        8.09196210077622       15.87422974670164
H          -15.48981301836308        7.74876453684855       15.32605790767667
H          -14.74460216608478        9.30527550535769       14.96082743303158
H          -14.73026712210986        7.43257473563497       11.69027489436667
H          -15.32697325128004        8.88750480760072       12.50308785314208
H          -15.98679916521213        7.31047014694455       12.91429990204004
H          -11.69907253528892        7.78311816924929       15.17086621013348
H           -9.39582642744982        7.97953651654443       16.44740797215124
H           -8.90765294582885        8.55608498646109       18.61382680028828
H           -7.81670956280584        9.92927465496934       18.77687702760196
H           -7.54921269089333        8.47002304374337       19.73103572665432
H           -8.10627235992672        6.41605363308927       17.45694125517209
H           -6.73194142122398        6.31218265688686       18.55187542128224
H           -6.47113762016782        6.32649158726762       16.80748735501835
H           -5.39006967315201        9.73955107023169       17.99508966983051
H           -4.83722917884353        8.26996548233755       17.17789554368734
H           -5.19701687400691        8.24407683504263       18.89911689291214
H           -5.60389955547682        9.84814961211391       15.80097701843230
H           -6.37703070660467       10.74511625774327       13.65849188159473
H          -10.05652864125459       12.49629147522386       11.70205952825160
H           -9.13379926776279       13.90430518076337        9.89858224220666
H           -7.62938605401700       11.40050969823655        7.09734414749282
H           -6.44003766846935       10.41254745633728        5.18490431738666
H           -2.22483566479235       10.33456457498383       -0.28139597708469
H           -0.23381931881242        9.78039407601332       -1.61616155817814
H            3.11654651789106        8.47147294181001       -3.12710264930252
H            3.88879371300907       10.02386222563394       -4.88441440485284
H            5.52052210267906       13.47084932166139       -2.53222411664887
H            7.19109367348611       15.25324089710852       -2.69395832305565
H            8.47548775704592       16.27040867568863       -6.92499874526136
H            9.42273499454980       15.47342926994272       -5.67184764611976
H            9.70084663899811       17.17538670919707       -6.04199544130233
H            6.70727004802577       18.00845002115681       -6.28064239751533
H            7.91079370585781       18.92872402537250       -5.38340726447694
H            6.43128917228596       18.39571266846421       -4.58464216306971
H            9.14202940621053       16.15640260383821       -3.22226627525742
H            7.91590547533211       17.35201200623412       -2.77420169577868
H            9.35325974754267       17.84660395708857       -3.65803103009877
H            6.23558547667205       15.84650504437010       -6.81994760267372
H            4.56850083074081       14.80914475434416       -8.58921116033723
H            3.12727770865716       15.78542251307588      -10.05130373572594
H            1.45123655702855       15.28128879316666       -9.85394027149978
H            2.16732263141142       15.35912320070631      -11.46412376089104
H            4.90817964176824       14.07025243703214      -10.72086194604348
H            3.96698087423898       13.62245103561905      -12.13975296471253
H            4.45602365546957       12.38743957589857      -10.97922234222021
H            0.76505775239323       12.87252328716463      -10.38661557676983
H            1.99524787436411       11.68746687189225      -10.85037309757946
H            1.55760107989056       12.98589148772618      -11.95228865387914
H            1.59461613071468       11.73693232497476       -8.66830239313763
H            1.99440474504483       11.24674172901065       -6.30257292123680
H            2.88352418344606       13.32852168896901       -2.41327419128691
H            2.12718906476025       11.77924637755022       -0.64700855366699
H            4.78230989995946        8.69572905850274       -1.12019582921890
H            6.01309090124942        6.60628316361355       -0.68350886185390
