269
 energy: -52.329838531302 gnorm: 0.000691881879 xtb: 6.5.0 (97a52f5)
C           -1.31804025112531       -1.17883842386953       -0.42190871386425
C            0.20281521408381       -1.41637870871180       -0.45632149458225
C            0.78233358469822       -1.27837419972816        0.96356176517515
C            0.45791519032673       -2.85522950808777       -0.94604753159980
C            0.85977750008419       -0.37603765699497       -1.37679974712894
C            0.72451296154377        0.99224987096214       -1.07351895095714
C            1.29002096622203        1.97470072881675       -1.84852268343100
C            2.02345377106271        1.60107789559935       -2.97083186632554
C            2.16664710924243        0.24285955807714       -3.29612217442839
C            1.58442421374751       -0.74180392725621       -2.49627130117994
C            2.96528556076096        0.17085630110505       -4.49683774265462
C            3.42145868825363       -0.90292506201959       -5.26326083779983
C            4.20170648307916       -0.67019139377397       -6.38045501171220
C            4.68977876211966       -1.86280973589626       -7.21715323799072
C            5.57460984765191       -2.76869737385515       -6.34161598649028
C            3.47404102769083       -2.66002140413850       -7.72520608437537
C            5.51434696792476       -1.40901042142726       -8.43751658607547
C            4.53277755477784        0.65814847676239       -6.71179959540205
C            4.09230225515102        1.72616680972555       -5.96998245997698
C            3.28936312757437        1.48694188667469       -4.85873751372920
N            2.70277768467034        2.37324296662800       -3.93387816180992
C            2.76618691490373        3.80967986438828       -3.99782170774304
C            3.38048074121381        4.53805911156016       -2.98659345975382
C            3.49818173261740        5.90320355692268       -3.08654581740821
C            3.00531426870314        6.58695643785963       -4.19672925003680
N            3.20947884857345        7.99967436715514       -4.31418872219763
C            4.25151920854578        8.61947947397140       -3.52559974619867
C            5.57739261196246        8.59457341696081       -3.95712186841334
C            6.53443797631302        9.34170685215868       -3.31573991455996
C            6.21472375665361       10.13418429303017       -2.20324762985624
C            7.12368053615644       11.23025446867307       -1.78684449021622
C            8.47469541941581       11.24393744470181       -2.18888958432575
C            9.16767088131645       12.42762903443004       -2.34318626600877
C            8.52282831799275       13.64417931261740       -2.07829145758176
C            7.24006930680521       13.62897568536796       -1.49244976100188
C            6.55989286273220       12.43655226244841       -1.33300239761422
C            6.64218579977090       15.03785780481133       -1.56081342661647
C            5.15243921964390       15.00236188266408       -1.93953986390784
C            6.84406980816035       15.77976633741045       -0.23309763977168
C            7.49355439610456       15.66635926463120       -2.67016160285777
C            7.04829649751810       16.47233462444687       -3.70351996065405
C            7.73959364773645       16.50186354244203       -4.93423596895864
C            6.93931479842286       16.61876222583222       -6.18550053207416
C            5.59887767924457       17.03993995380286       -6.13614785027831
C            4.69066931881324       16.64106839060959       -7.08791266712629
C            5.07882083539858       15.82678269302056       -8.15338284010246
N            4.10896549264015       15.13771678652867       -8.94902765388828
C            2.74902040166108       15.59632201696825       -8.99549369080638
C            2.46428415663603       16.94995345209427       -9.16390739727979
C            1.17406087996684       17.41152876974525       -9.07109031341305
C            0.12768495432228       16.53354580532373       -8.81181276701290
N           -1.20001338868978       17.03531956030957       -8.58632788476936
C           -1.97172653745194       16.80651967877483       -7.42947730683618
C           -1.71987846932479       16.03368905458823       -6.29934320080609
C           -2.66795583547690       15.98205891973946       -5.30753027702803
C           -3.88252574510139       16.69027072800191       -5.39532512137295
C           -4.95121781161664       16.61380091663601       -4.29460880893093
C           -5.20930336338236       18.02586386259664       -3.73780721788222
C           -6.25299209118422       16.04438827548976       -4.88836060315633
C           -4.51214282354822       15.70483025462887       -3.13054423485229
C           -4.12120954930591       17.46728977923847       -6.51339692821814
C           -3.16981962589832       17.52953466745140       -7.53246738534172
C           -3.14294491611925       18.22361309381850       -8.79771858750282
C           -4.07483276106247       19.03949386345078       -9.43986182903565
C           -3.79688802414197       19.54570428863796      -10.69533711514492
C           -4.84419458756928       20.42481418017781      -11.39584454761898
C           -6.13272563421839       19.60773002950345      -11.60338275696203
C           -5.14551571047482       21.65523400434893      -10.52023223358570
C           -4.35411369114045       20.91768396455662      -12.77104851843630
C           -2.56631815099090       19.22238498664690      -11.30008411940626
C           -1.63698716766751       18.42149494758869      -10.68275415302814
C           -1.92179885296114       17.91508082270348       -9.41779315482141
C            0.40223803718751       15.17598821748349       -8.69383710897901
C            1.69134693108050       14.71154286062227       -8.78873619942009
C            4.41109501680782       13.82490519397203       -9.45247167597149
C            5.14199498408048       12.90905167895457       -8.69568050504207
C            5.46039077767227       11.67129518746306       -9.20113459215377
C            5.04823953888348       11.30498319085957      -10.47682424293389
N            5.36296322121086       10.01223452131054      -11.02400158558583
C            5.67879934453849        9.77498063457457      -12.37970622111904
C            6.01008154893206       10.64896973755225      -13.41298826592528
C            6.21971122153269       10.14189971791543      -14.67202851125712
C            6.10964104734407        8.76630608339370      -14.95330209480686
C            6.33759324058344        8.19978376626951      -16.36297716110824
C            7.53016139441118        7.22667646570086      -16.32980651021472
C            5.07277097189203        7.45259333842680      -16.82550059188931
C            6.64304650796710        9.31101118846412      -17.38559555775382
C            5.79229734571464        7.90176520612273      -13.92344385498820
C            5.58144859820552        8.40001445270085      -12.63739408707817
C            5.20878956472591        7.75921990632429      -11.40168300216228
C            4.89911543814376        6.43296848578376      -11.10191724212579
C            4.46518017104022        6.09657254744707       -9.83470928422819
C            4.09704292120911        4.63665540925648       -9.53050928319589
C            3.19040160298808        4.07692537737020      -10.64535592317021
C            5.38467968754453        3.80041037708011       -9.44411935210658
C            3.33159632491469        4.51595348609547       -8.20242090804947
C            4.39252161043470        7.10619437405352       -8.85499284349335
C            4.70750924623805        8.41409498336708       -9.13118247859889
C            5.10453693837995        8.75914824881372      -10.42188342240446
C            4.29374627346590       12.20770264675539      -11.22021653202870
C            3.97518156429321       13.44436044769498      -10.71770776341782
C            6.44007032257610       15.55804600469683       -8.30565515985641
C            7.34689126148943       15.93555477525442       -7.34402980955690
C            9.03644082943078       15.93937257024866       -4.96447613142611
C            9.50282837423445       15.15070770678934       -3.93077475757118
C            8.68267565576267       14.92026312485648       -2.81521419823077
C            4.90175018156735       10.06273241901814       -1.71496530221517
C            3.93960093040878        9.33155428992918       -2.36785238085458
C            2.53793390989557        8.79230542579539       -5.31379763307223
C            1.17242665305088        8.65211741401545       -5.55354466834676
C            0.55153289713330        9.38738383055601       -6.53604242554902
C            1.27199610620253       10.29129597173855       -7.31023616590788
N            0.65038526563829       10.96027845612777       -8.42478706099952
C            1.00265320556648       10.74619683134964       -9.77231515660042
C            2.01144203085824        9.97461259346569      -10.33416960645273
C            2.11488869628684        9.90057015853466      -11.70028097801856
C            1.22888033103926       10.58317819162996      -12.55357540196707
C            1.36525129948599       10.52082013361105      -14.08201479379879
C            0.06428927110619        9.96355337542724      -14.68823575635602
C            1.62685649706711       11.93748382278678      -14.62513024698147
C            2.53001670811498        9.61157998387867      -14.51788856006120
C            0.21387661984078       11.33524678281469      -11.99165208226246
C            0.09227247514965       11.41411385706386      -10.60263649376987
C           -0.88244505535903       12.03702699507259       -9.74177882530862
C           -2.04854759538320       12.74952268174343      -10.02001155251704
C           -2.85368361524042       13.18238672199218       -8.98495046952862
C           -4.16368461168396       13.91192486453802       -9.31890630373330
C           -3.85512804721675       15.13404593064713      -10.20280804771313
C           -5.10026414689360       12.95285816944153      -10.07511051414030
C           -4.88567812077490       14.39630230537504       -8.04891292966144
C           -2.46381419025798       12.90137142720672       -7.66032942297529
C           -1.32161937801336       12.19527582889201       -7.36776782889826
C           -0.52302916584849       11.74396261127581       -8.41562456094684
C            2.62723393816129       10.46129799541511       -7.05097682729407
C            3.24649416376930        9.72953359346667       -6.06550044468563
C            2.37627363334870        5.85302633984798       -5.19903434174866
C            2.25482633680658        4.48778503737286       -5.09827163464558
H           -1.81393751543885       -1.91729012758140        0.20786341626620
H           -1.74122004033960       -1.25063237210796       -1.42364255216252
H           -1.55688969690818       -0.19185701897874       -0.02784400114305
H            0.34931975574607       -2.01935401933141        1.63534056472946
H            0.58000260666902       -0.29276295078338        1.38082672790597
H            1.86259140525806       -1.42221056522624        0.95372635864686
H           -0.01454572912809       -3.57901616353436       -0.28202234782687
H            1.52438479586685       -3.07832395101312       -0.97030001831156
H            0.04861486316224       -3.00845290438449       -1.94439094288969
H            0.15878409777117        1.27682748972941       -0.20348055684300
H            1.17888341484768        3.01702366268540       -1.60786809483502
H            1.71408821084995       -1.77219952920724       -2.76797879573561
H            3.16011832714903       -1.90345030941429       -4.97263553598491
H            5.02068662866812       -3.15729559303291       -5.48789235974889
H            6.43250686226818       -2.21554894786762       -5.95984486540052
H            5.94769337925898       -3.61900570440245       -6.91222398677370
H            2.88508741398053       -3.05570231840178       -6.89871458787379
H            3.78944798802144       -3.50179560189141       -8.34147389000378
H            2.82290510975771       -2.02637833422634       -8.32709769989083
H            6.40688313669303       -0.86515504159459       -8.12890266461726
H            4.92534660233041       -0.76708707394133       -9.09242848228090
H            5.84012440577533       -2.26776820139202       -9.02440018039362
H            5.15467065716555        0.84898226736915       -7.56778195393683
H            4.37210926224820        2.73478522974519       -6.21410668647546
H            3.77955243737864        4.01200104882857       -2.13678147220397
H            3.98711156481003        6.46131230998387       -2.30772603997914
H            5.82266238725311        8.02683574148526       -4.83806715861460
H            7.52768264919897        9.38364072564627       -3.72712628554732
H            8.94446437502453       10.31971354052349       -2.47894136234395
H           10.14692412725624       12.43073426466743       -2.79158108579504
H            5.52518015257861       12.46821824291254       -1.04711078330336
H            4.56605732255908       14.49625135187289       -1.17355873643877
H            5.00712806201618       14.47609687754218       -2.88273908961002
H            4.75161928699399       16.00967730938200       -2.04620448559278
H            6.30140208398276       15.28651040866298        0.57291244324353
H            6.48939737900572       16.80756518319913       -0.30553643479610
H            7.89961992437086       15.80476595730407        0.03631721483809
H            6.06172046599088       16.89047426925216       -3.63241148552159
H            5.25464479831782       17.62220125708655       -5.29898058872555
H            3.64943572732351       16.88264683501490       -6.96851281594043
H            3.27616884686962       17.63237800288252       -9.34678340541399
H            0.95976037020299       18.46212261233837       -9.16283256817788
H           -0.79542601520346       15.49001654041641       -6.22088772676371
H           -2.46995431940978       15.37739699560387       -4.44071120199436
H           -5.57726615890346       18.69663863661224       -4.51321183449888
H           -4.29202501373205       18.45326711633782       -3.33327252344334
H           -5.95095721637219       18.00101695120046       -2.93958562313839
H           -6.63186021345452       16.67487920182262       -5.69184516930229
H           -7.02961913809579       15.97195819757804       -4.12720405204866
H           -6.08666840425062       15.04716504271566       -5.29500261249818
H           -3.60102872484457       16.07783679431347       -2.66322837025069
H           -4.33487165026837       14.68569776678561       -3.47372122937890
H           -5.28301930133372       15.66301350814687       -2.36112691548489
H           -5.03679929563588       18.01951058740220       -6.61567308425030
H           -5.00753096069978       19.25487527678085       -8.95253043621510
H           -6.55011876805236       19.27815946282489      -10.65264169325183
H           -5.93369634935196       18.72175036379647      -12.20612066878942
H           -6.89232222635590       20.19973964722589      -12.11368606937323
H           -5.55482077316167       21.36407481164392       -9.55370552870909
H           -5.86967621910095       22.31045042891428      -11.00414014993249
H           -4.23767311325901       22.23054750820408      -10.33986346911029
H           -4.15455644104663       20.08096789971573      -13.44020169500115
H           -3.44454840162294       21.51015890442104      -12.67414121709006
H           -5.10701014495316       21.54599611768100      -13.24692179070289
H           -2.34267204354661       19.60704873031967      -12.27899992849620
H           -0.70703137681843       18.16832815217926      -11.16000013681125
H           -0.41063791447094       14.49502513573740       -8.51673560560724
H            1.89552888602020       13.66051693291790       -8.67920009456119
H            5.45694406667955       13.18827581469525       -7.70528597224858
H            6.04800593630174       10.97932458309027       -8.62358980754521
H            6.10251896370459       11.70136306112756      -13.21184956115958
H            6.47306159872053       10.82360150762021      -15.46406117956610
H            7.33981643856028        6.39059315737245      -15.65787375332023
H            8.43114379340616        7.73397478728393      -15.98548513428698
H            7.72959608431405        6.81946570974229      -17.32086838375137
H            4.83547182637199        6.62276016225796      -16.16102754292927
H            5.20460870587932        7.04767435467243      -17.82873925625291
H            4.21420597108634        8.12304344099690      -16.84399034506788
H            7.55119706902706        9.85138175993535      -17.11938656791590
H            5.82033598072176       10.02311214560330      -17.44824730154610
H            6.79108939333806        8.89050117689820      -18.38022690514762
H            5.70123348590691        6.84593823220518      -14.09873995389535
H            4.98983891891492        5.68880364666494      -11.87081154108743
H            3.70830715828053        4.03361646508727      -11.60224640189670
H            2.30384139878471        4.69876614005967      -10.76852391736347
H            2.86120592566607        3.06564306074003      -10.40651556388571
H            5.94388534050569        3.84702275590670      -10.37818393797105
H            5.15784978847699        2.75439380398063       -9.23973124305948
H            6.03139487674262        4.16871528750221       -8.64796132874293
H            2.44068274578478        5.14353438832234       -8.21088711424239
H            3.95633582953045        4.80967335581459       -7.35966440142545
H            3.01135251496006        3.48784212234157       -8.03503500935271
H            4.07076851012947        6.85671466541695       -7.85959120384440
H            4.62215139234073        9.17465951267236       -8.37740169377829
H            3.94539875758295       11.91365183243198      -12.19418062443754
H            3.39236757683399       14.13861827406266      -11.29760823963392
H            6.76059919803796       14.97516569818513       -9.15189155480144
H            8.36747029154747       15.60761018320344       -7.43630278692158
H            9.62642907468738       16.02370583366330       -5.86123841150754
H           10.41929996635552       14.59555302141382       -4.04111935669065
H            4.63054557951690       10.62782420641445       -0.84008289155037
H            2.92095977775090        9.32977606234087       -2.02067583242661
H            0.60852330476430        7.95875032569923       -4.95413532469387
H           -0.49722663135699        9.25542937057663       -6.73805825867941
H            2.69360123243577        9.45434569283633       -9.69062324672292
H            2.91652495307913        9.32085680025272      -12.11995949518232
H           -0.78680464846938       10.60347150397967      -14.45881294560318
H           -0.14813579098845        8.96963499228746      -14.29483856403913
H            0.14070133305638        9.88796308452816      -15.77282451992048
H            0.80898665561537       12.61313662924218      -14.37762208152351
H            1.73436961597331       11.92572306933745      -15.70959605699538
H            2.54156559953175       12.35063752441432      -14.20092570696020
H            2.38993553862679        8.59117700216393      -14.16178021968289
H            3.47949584992770        9.98378691767897      -14.13675357056339
H            2.60523166699150        9.57545639746298      -15.60435360431179
H           -0.48949911371411       11.86061675765954      -12.61053422647586
H           -2.31889736184722       12.93396278319914      -11.04304792864858
H           -3.45198808127814       14.83726508810702      -11.17001344792344
H           -3.11871932100528       15.77172528430810       -9.71904381358871
H           -4.75171858998429       15.72680238379702      -10.38324536406795
H           -4.64712341584192       12.61034040462056      -11.00476078283162
H           -6.04223507876169       13.44224002874196      -10.32221531355677
H           -5.32365335706058       12.07513672469721       -9.46896970319820
H           -4.24314441659343       15.05409380818687       -7.46768052660795
H           -5.18113430445715       13.55751742417121       -7.41917060915603
H           -5.78775292839881       14.95315405037610       -8.30208513893055
H           -3.08034027408402       13.24032755281451       -6.84699429127208
H           -1.03885190435866       11.97814651064930       -6.35303769212392
H            3.18454382435456       11.16169680619221       -7.64880189018679
H            4.29611066619093        9.86210094411165       -5.87268634841578
H            2.00383473123578        6.36486217588251       -6.06808701479605
H            1.76413022029000        3.92115553533364       -5.87034807694260
