126
 energy: -24.160930115104 gnorm: 0.000933320838 xtb: 6.5.0 (97a52f5)
C            2.04626449969230       -0.34509320210853        1.06839498940494
C            3.43245306109413       -0.01118560814922        0.48691393122433
C            3.73611039153127        1.47083089976340        0.77913621713604
C            4.50544842815555       -0.87242542217231        1.17757422858725
C            3.43557798952703       -0.31008256188828       -1.02006287791879
C            3.69900089048707        0.68636337389914       -1.97957621555169
C            3.69468100334025        0.42264026574350       -3.32718132265642
C            3.42216486596846       -0.87294274088899       -3.75524613950648
C            3.15579397111157       -1.88152937182221       -2.81717766306590
C            3.16636749985664       -1.59472931097330       -1.45207103934373
C            2.89415083633552       -3.09545339317111       -3.55430584975837
C            2.58925213936528       -4.39549419595322       -3.14985903113918
C            2.39460349138139       -5.38401252449938       -4.09579883225882
C            2.06273320563884       -6.81072349705033       -3.63200210919967
C            3.20726909454187       -7.33631692978354       -2.74632669040245
C            0.75091506474095       -6.79058771416038       -2.82654282794914
C            1.88770335024308       -7.77508992619630       -4.82088955156182
C            2.50983669929072       -5.04935723264680       -5.45859611347919
C            2.80836533254756       -3.77557456918170       -5.87528784899175
C            3.00122215169637       -2.78452062802039       -4.91765616750257
N            3.32681850622937       -1.41987263317881       -5.05031904247120
C            3.51056814329185       -0.71723725257244       -6.29092996701180
C            4.71115413008808       -0.07525746803767       -6.57325630096006
C            4.89156314784611        0.55825773034552       -7.78386427204981
C            3.87813326788210        0.56374696485256       -8.71521221215861
S            4.14084472058322        1.37680858197808      -10.29556587607849
O            3.18058952516938        2.54126834517543      -10.38536739725797
O            5.63398165647727        1.49438897440959      -10.50825027652731
C            3.52454781891424        0.06040292760016      -11.34739503675577
C            2.30214243136033        0.20231898085607      -11.96237384974133
C            1.80753136406567       -0.82220655687724      -12.74606377547858
C            2.54440175393514       -1.97264055297620      -12.90819396907209
S            1.89503667702004       -3.30153394919002      -13.92418765279394
O            2.39167026839066       -4.60940296988971      -13.34784352649324
O            0.44270160582772       -2.99782697248377      -14.21954222443853
C            2.84943438339434       -2.94961103313831      -15.40257254876760
C            3.88518759114203       -3.78416325862195      -15.75460335768121
C            4.62748022039086       -3.52004287502897      -16.88471918261390
C            4.33590347548724       -2.41187802731623      -17.67230661193209
N            5.10987101473484       -2.13361583711552      -18.85025176736917
C            5.73844435433243       -0.91194382122574      -19.16626264940190
C            5.78995563021639        0.29686169039212      -18.47820411435005
C            6.50323657245164        1.33759786339832      -19.02005987886135
C            7.18515255686785        1.22041336605033      -20.24618171581486
C            7.98510636838013        2.38555696777937      -20.84889933469389
C            9.46387878530682        1.97518194739990      -20.97116028662527
C            7.42331109921195        2.72217601095148      -22.24260617037493
C            7.90248815611526        3.65189553698241      -19.97491985462102
C            7.13756921512391        0.01511078378179      -20.92030316926265
C            6.41824106707486       -1.05380351412261      -20.38504601059589
C            6.20163439911223       -2.40621326629876      -20.84179652986628
C            6.62502993541433       -3.09222763860704      -21.98047925745444
C            6.24564506858707       -4.40683595529146      -22.17395527344487
C            6.72837179947058       -5.14952661062170      -23.42929315615072
C            6.22893257332662       -4.40832739297573      -24.68307438228874
C            8.26744515088289       -5.19376561242963      -23.43119092952786
C            6.20113897293753       -6.59646750021225      -23.47918472156393
C            5.42856407729016       -5.02476530248833      -21.20822874422561
C            5.00448419528585       -4.36603205545739      -20.08062098161094
C            5.39813497087390       -3.04522778497652      -19.88606275722199
C            3.28536763432901       -1.57889864348432      -17.30372541863447
C            2.54533576610413       -1.85040234658054      -16.17362607109635
C            3.77177005663065       -2.11052512383569      -12.30132795272810
C            4.26597331474094       -1.08655574391582      -11.51625901806397
C            2.67701309386296       -0.05254853253712       -8.44168109796834
C            2.49292703301508       -0.69457770823238       -7.23759648811491
H            2.00687634546427       -0.12384052340499        2.13440056165262
H            1.80484376969535       -1.39898873445748        0.93888980793187
H            1.27098674902238        0.23876630880100        0.57352630860791
H            3.72611959352682        1.66259100017334        1.85161581855914
H            2.99138593690962        2.12150475851028        0.32213691932373
H            4.71970837922972        1.75154246151424        0.40433877090674
H            4.53831128823061       -0.67021796790400        2.24758124950284
H            5.49129368576095       -0.66334963608601        0.76381929959097
H            4.30594456289654       -1.93478655062262        1.04565683532055
H            3.90760946131558        1.68976848005077       -1.65479027276831
H            3.88796570548409        1.19308366372769       -4.05183050656745
H            2.95951891057255       -2.38016675460415       -0.74939949755923
H            2.51069875028733       -4.61415913631955       -2.10132662525988
H            3.33668217258516       -6.71955893281069       -1.85831493487643
H            4.14887123183802       -7.33552479550454       -3.29423521727047
H            3.00910542418793       -8.35586225459466       -2.41733350407653
H            0.83948200052096       -6.16370699730949       -1.94062022244343
H            0.47909724907684       -7.79351760020197       -2.49911683131707
H           -0.06613356595715       -6.40028437734220       -3.43224394327690
H            2.79978227935214       -7.83767320286010       -5.41324787091463
H            1.07323114028246       -7.45500251153234       -5.46962305920029
H            1.65352897843012       -8.78017683996041       -4.47148579797622
H            2.36166861896308       -5.81048234095634       -6.20325879576299
H            2.89979080485985       -3.53263231401514       -6.91867537818845
H            5.49938491247455       -0.09595104265545       -5.84111943216902
H            5.82270456952331        1.04554140628376       -8.02238060875495
H            1.74244170278812        1.11197602121121      -11.81834223207238
H            0.84537813983554       -0.74128083893740      -13.22458277174298
H            4.09977982881608       -4.64099002961080      -15.13751505045808
H            5.44569653800248       -4.15973256944585      -17.16544632986275
H            5.28228626040670        0.39580143150040      -17.53572803547405
H            6.53943731002367        2.26805949332798      -18.48263130292368
H            9.58243458927062        1.11197790020932      -21.62435549637524
H            9.87246531613705        1.71492242026181      -19.99535179010152
H           10.06173701868413        2.78824105722040      -21.38159225868002
H            7.51201192361661        1.87547418002750      -22.92149054700434
H            7.95830816951330        3.56113824233976      -22.68629059046168
H            6.36945815018630        2.99050298593529      -22.17784308000936
H            8.31625899286754        3.47290432485498      -18.98319008314624
H            6.87159879401499        3.98682017743055      -19.86590804405226
H            8.46775572783755        4.46812005005052      -20.42364408396918
H            7.65203310199491       -0.11380322039578      -21.85417866707492
H            7.24435167925996       -2.58670532427230      -22.69762630578332
H            6.62064388372341       -3.39325270687652      -24.72621367590774
H            5.14118408630072       -4.34751377406986      -24.68619304847356
H            6.54058460269457       -4.92412036318052      -25.59072479432230
H            8.69239060513109       -4.19140395079016      -23.45193789953003
H            8.64123714557341       -5.73222083678352      -24.30141460595614
H            8.63873268664136       -5.69590014832319      -22.53846452849378
H            5.11206691163886       -6.61717333807600      -23.49831602158852
H            6.54462048063430       -7.16968312810483      -22.61878787740306
H            6.55499240770205       -7.10549171889826      -24.37521010612673
H            5.12274904321053       -6.04555405603806      -21.35090553852541
H            4.37293683947274       -4.84642245272347      -19.35521988849074
H            3.05153701112081       -0.72927343065050      -17.92102489986981
H            1.72197625569869       -1.21698629041282      -15.88843940330526
H            4.32862793210083       -3.02300909344394      -12.43614608513063
H            5.22338477595122       -1.17474288452147      -11.02985506551786
H            1.89042459087898       -0.03284193749548       -9.17693390348219
H            1.56203102798670       -1.18531020035160       -7.01276333540552
