126
 energy: -19.784892957473 gnorm: 0.003021127949 xtb: 6.5.0 (97a52f5)
C            0.77287952159873        1.19776535563920        0.30766670842139
C            2.29169457371974        1.30379508980475        0.54415427619716
C            2.64890588582508        0.46254690367224        1.78328446425225
C            3.01599352278719        0.73960455956807       -0.69206484105433
C            2.73637611513999        2.75689727315569        0.77007685699792
C            1.82999192331252        3.83321794904201        0.72090525805921
C            2.22904083520972        5.13404755509354        0.90620001133207
C            3.57337651854545        5.39525785930961        1.15475038340048
C            4.49378951158462        4.33789627275107        1.20403851293890
C            4.07038872143087        3.02265023997514        1.01266268723913
C            5.79697117150546        4.91390756725896        1.43591986540112
C            7.06459889476969        4.34582732779438        1.56358037915774
C            8.16381492971006        5.15519132712332        1.77779235612067
C            9.55356100704773        4.51246718395265        1.90393294920671
C            9.54963399184803        3.51468249643369        3.07684348326880
C            9.88968624012092        3.77364511118773        0.59559423383964
C           10.65061968247108        5.56238652609768        2.16482591897522
C            7.97269979573928        6.54755295434509        1.86308896686491
C            6.73289223228312        7.12418111363337        1.73643514587046
C            5.62994687726120        6.30412482914605        1.51602405850372
N            4.26397058291406        6.60936726367278        1.34741662656205
C            3.69482527191117        7.92683664288537        1.27678464577086
C            2.58986655648855        8.26867290185457        2.04800017722080
C            2.03782225997565        9.52834459873486        1.95319659435996
C            2.57838918057390       10.45599125316879        1.09247075172787
S            1.81971558475160       12.08358553030229        0.99285618785301
O            0.32982376361314       11.96401969311285        1.24016028818267
O            2.62512032491093       12.99957453742090        1.88420536819849
C            2.09384123884503       12.41939665293532       -0.74664946848704
C            1.39698049514592       11.60032684150814       -1.61387337280590
C            1.52336087644215       11.47155281315370       -2.99332118757378
C            2.51619806482749       11.89857066942085       -3.80568847767341
C            3.72825134442074       12.51681897105285       -3.60447265493000
S            4.33548175205408       13.71259553142468       -4.44346724299471
O            4.98830593576351       11.42254211015037       -1.89398169784691
O           13.89469517825544       12.73469081453550      -10.53278168249155
C            5.57424308587976       14.87552291243291       -2.32289675631475
C            6.04555000571912       14.02878514934389       -1.40272602028552
C            5.85381589786197       14.22396161562234       -0.08211483186257
C            5.05259209786813       15.17677431589218        0.41566349073675
N            4.51223679299682       15.15459884732171        1.54503007717762
C            3.41528371851353       15.79056801160863        1.84377462099249
C            2.69221743136350       16.58538625002502        1.03375300307805
C            1.43515959832694       17.01064945534672        1.31844714851517
C            0.62054461800397       16.57827422867867        2.41272257206214
C            0.19066599357407       15.14761656202865        2.34167278966540
C           -8.15532517447321       18.50710784590191        8.18472953147502
C           -0.42236988767820       17.52252324834911        2.81494613982460
C           -6.94032756010596       17.18630742137847        5.00537524535358
C           -0.92812359013438       16.15771019562926        7.50413397653959
C           -0.15494542599529       16.75860152743805        6.62001713925249
C            0.77796575744269       16.20443380732714        5.84730749639828
C            1.14430171459103       14.94754314982223        5.82638259766550
C            2.13835627435553       14.36934625286540        4.97138233078472
C            3.49886310941801       14.87020161581702        5.16478470035529
C            6.16732266076234       17.68808053781262       12.73863576002598
C            2.02794668504968       12.92367597168415        4.76963714223188
C            3.87361071791744       15.20384501625358       11.00271089696316
C            5.14698122456380       14.89777273816059       10.76212065741409
C            5.62759258052158       14.72088802304526        9.54906506494617
C            2.60171314445368       12.82158423877831        8.36800579213986
C            5.92071095525752       17.61902059097036       -0.53782172623801
C            5.18673665049379       15.35372700848851       -6.60905433395630
C            2.92618131991149       13.40502386014286       -1.07640815725750
C            3.67676714431539       10.13003351282058        0.32621489036335
C            4.23234481672964        8.87420793403276        0.41460029714221
H            0.47747321552014        0.16018388070870        0.15486811500781
H            0.47341716090837        1.75747623519651       -0.57764955547956
H            0.21513570935136        1.57600397229158        1.16362595813399
H            2.32665694567920       -0.57069036075152        1.65875961176925
H            2.16363322925348        0.86262176456393        2.67277893921969
H            3.72290197077744        0.45637795682810        1.96241197081066
H            2.70894690001221       -0.28679844225358       -0.88977510022268
H            4.09611423251061        0.74357432035432       -0.55401552566125
H            2.78994319548338        1.33559338073261       -1.57552665469495
H            0.79043942338773        3.63866142203743        0.52783896554669
H            1.52958558757592        5.94864272782829        0.85217575992872
H            4.79269568122969        2.22860770788455        1.04724628059300
H            7.17163303728034        3.27983313458723        1.48867323364592
H            8.82965300970189        2.71414313410732        2.91446041664203
H            9.28803270408264        4.01639589876788        4.00776359860096
H           10.53077197233715        3.05838716826336        3.20349682186571
H            9.16949655233156        2.98284822996555        0.39143884121968
H           10.87840131466890        3.31912138324618        0.64714679360001
H            9.87811995941645        4.46213516463370       -0.24861494063207
H           10.46128917496017        6.10599703926721        3.08967270001005
H           10.71116455939642        6.27886969263839        1.34646700859628
H           11.62636426566558        5.08646531900577        2.25687875691675
H            8.82049961661620        7.18697241590344        2.03128757537281
H            6.59951960534761        8.18881030875584        1.80558434732215
H            2.17944298155683        7.53890974190283        2.72367426393613
H            1.17733316297998        9.79955142820105        2.54227338309557
H            0.66244887584944       10.96412564572241       -1.13937461107170
H            0.75908637614390       10.88999217315927       -3.48793084838999
H            5.53963599963898       14.66300003624963       -3.36793553407417
H            6.43978627811308       13.07331927770203       -1.72001811864655
H           -1.70949926972453       11.77743847617330        1.37226059531457
H            3.10559159526262       16.82808834832861        0.06892332308943
H           -0.48430912753732       14.98257626815970        1.50220835333971
H           -0.32534538076661       14.84973068353028        3.25388294259401
H            1.04965186815464       14.48791738977814        2.21513489525183
H           -8.79417710588512       17.78895221672062        7.82994283886761
H           -2.23250430992148       15.99554432840317        4.62485329806565
H           -1.30171891594506       13.51438744869777        5.73949886939777
H           -0.01922656159286       18.48061997183204        3.07294021242041
H           -4.44263404467554       15.46495522745049        6.38152539836391
H           -1.17236596386895       17.64112554761039        2.05936758980047
H           -7.29264034033641       18.14653406816525        5.00402863284101
H           -5.98562791254116       17.73529362905022       10.15411446226299
H           -1.26661389291745       19.31788867012850        7.52182591516839
H            3.91557374007138       14.55980291226766        6.10151846265356
H            3.55372903646247       15.93675821026676        5.07938063045376
H            6.31189592807453       18.70213703845261       12.74935776677652
H            2.93521193164342       16.17863770942549        8.12402698254182
H            1.21254704748456       15.38850593512796        9.33841606534522
H            1.03405848874468       12.63619341973459        4.49236578958038
H            4.93065924051865       17.79093671586605        9.70035396117528
H            2.70803867814075       12.58093211781224        4.01593763358560
H            3.47013876328646       15.35440994029673       11.96167173756085
H            5.82772367865456       14.79222197603040       11.59152694259079
H            3.22498346843540       13.37016793165444        8.96599712055279
H            5.62068793444567       16.68634411753712       -0.23017298497417
H            4.85329397893660       14.70308098370086       -5.85770161660190
H            3.48260371276913       13.96543136824253       -0.38006629244718
H            4.09033428632402       10.84058351645927       -0.37183561922633
H            5.07262293253015        8.60840184435710       -0.20328759546003
