76
 energy: -15.161059885635 gnorm: 0.000826791368 xtb: 6.5.0 (97a52f5)
C            1.08765985026398       -0.29737849500266        0.16593276489361
C            2.59128926072610        0.02391240090383        0.08542202834737
C            3.37000134077740       -1.12942477327940        0.74714699573105
C            3.02426438734648        0.11830368162156       -1.38920401246800
C            2.86328691431375        1.36710154394763        0.78022906207901
C            2.22402537394606        2.52691577372563        0.30350439184223
C            2.43011924753109        3.76124739639467        0.86620577109777
C            3.30114171627875        3.86528491775437        1.94636964808600
C            3.95069953470812        2.72314187563040        2.43886509430223
C            3.72769415176631        1.47602873413411        1.85350016992840
C            4.79753181915494        3.14917644587455        3.52703420854359
C            5.66361461940391        2.45596987305662        4.37321540109718
C            6.36815649928341        3.13805289056911        5.34653281356744
C            7.31979224025583        2.35857706284225        6.26734791314398
C            6.52381320276588        1.28273123338811        7.02901889476423
C            8.41354466363604        1.68892444114680        5.41545866324760
C            8.00187168117300        3.27759273843996        7.29910162066240
C            6.19388525805805        4.53109035448065        5.45942082634584
C            5.34839871557113        5.23045115575626        4.63485653681825
C            4.64121622091597        4.53731442576812        3.65705302012243
N            3.72064007975635        4.98285511787665        2.69096949552924
C            3.34464746873092        6.35016396136692        2.44665333589336
C            2.01064836561927        6.75850331045047        2.62050920667419
C            1.62156783619138        8.05087789178417        2.39177278963797
C            2.57247115091205        8.98524219804057        1.97010400561744
O            2.43767818738931       10.33048981020894        1.67341081424096
C            3.68229748929601       10.80352785891102        1.29543079023994
N            3.98292988543410       12.05083877192488        0.92638124340348
C            5.26393925836701       12.23927478032670        0.60159588914725
O            5.84377129882599       13.42452889524052        0.18406754624797
C            7.18215921009003       13.17584697878148       -0.05295373689833
C            8.19780753298946       14.03032260978383       -0.49077850602998
C            9.46776438610366       13.53830231265447       -0.65228776736122
C           10.58546763763332       14.44526163539283       -1.13883521515959
F           10.16693214009813       15.72849730504925       -1.09505039252032
F           11.65790252001629       14.27715756026181       -0.33492149100430
F           10.89619375912207       14.09741915183672       -2.40592273291220
C            9.75397406035704       12.19612688631158       -0.39168197663020
C            8.77813577536573       11.33431216300075        0.03840807566697
C            7.48523563790591       11.82681994041839        0.21038446478671
C            6.26006590652916       11.22007656461721        0.63320256028028
C            5.94883017241298        9.93161749028698        1.01903878956185
C            4.62495814106179        9.73569458031210        1.35570369699976
C            3.90713944814125        8.57644972193807        1.79109064068523
C            4.29487582079189        7.26195034169124        2.03302848729639
H            0.86869413143845       -1.25647445173829       -0.30170812752647
H            0.49193742098375        0.46150640414697       -0.33840871509252
H            0.75960730887502       -0.34525984285361        1.20347643169460
H            3.16333753547088       -2.07334031472163        0.24417348616559
H            3.08690387928607       -1.24451630333431        1.79262398293225
H            4.44438180857122       -0.95786947302731        0.69522837277475
H            2.86289216995584       -0.82777372373105       -1.90431939788053
H            4.08205394308591        0.36714777569523       -1.46419697175185
H            2.46243808866583        0.88559610533801       -1.91915073998233
H            1.55404251558414        2.44282104597757       -0.53393268754402
H            1.94260472799228        4.64190020507178        0.48824906324916
H            4.24195240666197        0.62050848931433        2.24748547647183
H            5.77350333411512        1.39426492469117        4.25587634587932
H            6.06545616621987        0.57001982203976        6.34549961816130
H            5.72984995828367        1.73797562801362        7.61962010425986
H            7.17049496664554        0.72561335943517        7.70572366831842
H            7.98540763983795        0.98570778485362        4.70303012104436
H            9.11597453685454        1.14158518836041        6.04274312157107
H            8.97366116710972        2.43506292348111        4.85331626572194
H            7.26595827698374        3.76545236144448        7.93692397760722
H            8.59922161665934        4.04446333789216        6.80777087733233
H            8.66815648547321        2.70588319651565        7.94399019217188
H            6.73715491567829        5.07153830452217        6.21329219253459
H            5.22043991251319        6.29384154980155        4.73011381111915
H            1.29345818172765        6.02642318245228        2.94819030521105
H            0.60303775452664        8.36651572297625        2.52870676099392
H            7.98446756655424       15.06391758731157       -0.69457157609639
H           10.76456524527574       11.85309714202356       -0.53591755405654
H            8.99271176455098       10.30025857134252        0.24248566572738
H            6.67714696828341        9.14326051348703        1.04930254119764
H            5.31465773907134        6.95687146765663        1.89182156223057
