76
 energy: -14.515919889281 gnorm: 0.008919244651 xtb: 6.5.0 (97a52f5)
C            0.24293852991525       -0.42320605587764       -2.95634387629263
C            1.63819014259555       -0.69167481621507       -2.36344085901358
C            1.54372962968294       -1.78175020428444       -1.27985122215921
C            2.55689332845450       -1.20547154646822       -3.49220119475248
C            2.17882450114026        0.60372543877663       -1.73868680949381
C            1.48107365551333        1.21944488687647       -0.68190380527171
C            1.90379230508096        2.39095922270596       -0.10069030089784
C            3.06791963965145        2.99358770518707       -0.57385998084556
C            3.76857300242472        2.39444890062572       -1.62966264536275
C            3.32731488762735        1.20661246354637       -2.20791688714580
C            4.87029206166585        3.25513535303946       -1.96099575914783
C            5.84655943356504        3.16207105938315       -2.94959116121023
C            6.78239615245719        4.16534634775388       -3.08660122813529
C            7.82909987530616        4.05215747318162       -4.20497215659262
C            8.63828341664489        2.75439085665754       -4.01418601487015
C            7.10859819828130        4.01485682385745       -5.56638954071123
C            8.80454477889565        5.24449157800353       -4.19830253718692
C            6.72429957232632        5.26552989495301       -2.20884086630221
C            5.76589781258722        5.37246651330036       -1.22996251202582
C            4.81572196306234        4.36037228189690       -1.10175718956939
N            3.71249073963418        4.20252439308933       -0.23527593713951
C            3.25795552692168        5.17937118519637        0.71561839018663
C            2.83936251288380        4.79164901337034        2.00216567793977
C            2.38743998760553        5.70385465569021        2.91992037870001
C            2.35022901407605        7.05938420490161        2.57716142708632
O            1.93766731261073        8.17272440035337        3.29485675081290
C            2.12306289913634        9.28766613573700        2.49174919592951
N            1.86065627716049       10.56335906877849        2.79139885048086
C            2.17282205993001       11.43626997489344        1.82850622496900
O            2.01801092796654       12.80552550244728        1.86501488332853
C            2.48283384624323       13.33872312691233        0.66933483598354
C            2.44636282527942       14.72997016656563        0.46048955536884
C            2.91210553153317       15.44140582370093       -0.57126536328680
C            3.64193624229893       15.02554603966305       -1.65272853113718
C            4.86341886980061       14.72101582577298       -1.30070294832771
F            5.27361593137744        0.61519201753986       -4.39403142078011
F            4.18459330670826        9.00169275560383       -2.35442116889480
F            9.64501459690598       15.57897820391440        5.31041509366865
C            3.45858443896372       12.33937958723519       -1.42290905702382
C            2.93614285592364       12.28843986047820       -0.17455070822548
C            2.73307274590055       11.08412448817045        0.57233740767138
C            2.97306846292272        9.76607048208624        0.24993060653355
C            2.65704372398400        8.86458114825820        1.24101961397258
C            2.78980685067050        7.44540330703239        1.29874879001226
C            3.22743529703386        6.51340214753876        0.36560656683236
H           -0.15980102055595       -1.31834397178950       -3.42951689768286
H            0.28963888773582        0.36355979201474       -3.70887837326027
H           -0.45996045379739       -0.10764399999900       -2.18688711187887
H            1.17421706608101       -2.71744570204632       -1.69887767947494
H            0.86886039476107       -1.48613320122202       -0.47815487192858
H            2.52185175833132       -1.97224131525935       -0.83904013926413
H            2.16648370558662       -2.12930775818872       -3.91793050779677
H            3.56049125207812       -1.41081869349453       -3.12133637485876
H            2.63649050843077       -0.47831055334371       -4.29982419448687
H            0.57662236059444        0.76038498031021       -0.32321133815399
H            1.34537789522081        2.85671495801818        0.69087515656491
H            3.89084607539854        0.80141747053288       -3.02673777174026
H            5.84371515287377        2.30991541354678       -3.60331979307698
H            7.99862639432459        1.87494833456088       -4.07615894030764
H            9.12556205078446        2.74534955452629       -3.03973330667425
H            9.40779442508459        2.65719174108300       -4.77920960959608
H            6.45502324868371        3.14696963399656       -5.64449800979521
H            7.82401933959686        3.96684362672333       -6.38649198117227
H            6.49700288298199        4.90637159014705       -5.70218510232260
H            9.35028268712617        5.29919350307804       -3.25734442257770
H            8.27635142918041        6.18528723542819       -4.34777626533328
H            9.53582999643025        5.14813709313216       -4.99965103703190
H            7.44224303718210        6.05954031814376       -2.31008430967324
H            5.73982085142913        6.21998073921782       -0.56908448604364
H            2.89472032213095        3.74940361228519        2.26295979040968
H            2.06335092459206        5.40648396593528        3.90098026910858
H            1.98238474411844       15.28754843400043        1.25747388378559
H            9.82138500114334       14.67803949597316        4.92652496612098
H            3.77807457676138       11.48747931884380       -1.94699276476073
H            3.38960720480093        9.45905650176093       -0.69154262013667
H            3.52005163486767        6.83409019361654       -0.61735872338912
