45
 energy: -10.239979493297 gnorm: 0.000603232546 xtb: 6.5.0 (97a52f5)
C           -1.65101264572610       -0.51642460302443        0.01908392411567
C           -0.45755678187074       -0.78142814028391        0.00493986076049
C            0.91809604893682       -1.04355894209138       -0.00771223405471
C            1.41632714760990       -2.32088945035428       -0.00210892200083
C            2.80265734674431       -2.58988485323985       -0.01417957358258
C            3.72207621128496       -1.58822952926714       -0.03131049051099
C            3.28272700330811       -0.23650829645695       -0.03665134404547
N            4.02436407951145        0.85349637211442       -0.04742713729454
S            3.01807285955724        2.15170685116965       -0.04337685459922
N            1.59115687618747        1.33581035856641       -0.02754589966168
C            1.85815968323028        0.04700003739271       -0.02535996082962
C           -3.01729035956446       -0.18527545903133        0.04033648661717
C           -3.42427941511879        1.14458147741111       -0.02828127291014
C           -4.75892589015059        1.47386505326720       -0.00265467774689
C           -5.73021401508157        0.48373062598100        0.09434466914456
N           -7.12414358533677        0.82819196713897        0.13450435631479
C           -7.79811404450403        1.67873026546670       -0.76660208032052
C           -7.34238816258158        2.36127126348829       -1.89360888088227
C           -8.23050663099541        3.13096440759574       -2.60368182902676
C           -9.56844037084589        3.23326463024883       -2.21320119460979
C          -10.03567782052913        2.56279176221771       -1.10892030546530
C           -9.14507155958539        1.77513149440289       -0.37825659626837
C           -9.31127466150292        0.95896851329894        0.80048200939428
C          -10.41709159971021        0.68736578339960        1.60728858614478
C          -10.25320509965323       -0.13836871446788        2.69294252257263
C           -9.00688615864647       -0.69626794959020        2.99027465490381
C           -7.91059190625297       -0.43976076439269        2.20437364036294
C           -8.06046651023080        0.39034354180251        1.09433329055373
C           -5.32732776468967       -0.84532621807647        0.16146387040739
C           -3.99263312575220       -1.17458476102626        0.13426675489181
H            0.72041089511014       -3.14193019956338        0.01219514805986
H            3.13561554655665       -3.61454776695468       -0.00943599305136
H            4.77754148092254       -1.79258455623559       -0.03997726500745
H           -2.67457872182452        1.91415164474803       -0.09775197297398
H           -5.06863292861726        2.50354031959486       -0.03947467167109
H           -6.31404487240275        2.27035470894513       -2.19378127962836
H           -7.89181484858388        3.66403109033030       -3.47674287813705
H          -10.24309919056499        3.84554499387520       -2.78847333032403
H          -11.06429846184293        2.63408116582960       -0.80269361795117
H          -11.37166313978888        1.12469088568477        1.37395943863023
H          -11.09652879178624       -0.35698430298336        3.32697193472174
H           -8.90529705416280       -1.33605947854479        3.85135379980849
H           -6.94654475681514       -0.85692621697198        2.43327546010300
H           -6.07852222236735       -1.61315425720834        0.22217631342655
H           -3.68590208188426       -2.20522475421116        0.18533354160477
