150
 energy: -29.613698929930 gnorm: 0.000666337676 xtb: 6.5.0 (97a52f5)
C            0.02559068769404        1.48019734651536       -2.00425521623835
C            1.55717911089258        1.37778924706637       -1.88282703453256
C            2.00703136794101        0.05256468679076       -2.52788201649616
C            2.21742121588401        2.53877576409936       -2.64886159204938
C            1.95629191568096        1.45457232934902       -0.40102399627111
C            1.61530655257233        2.59890295631430        0.34289333332603
C            1.93915816109125        2.73417573382110        1.67011314382607
C            2.62491818550367        1.70062457191561        2.30264113330911
C            2.98641275946297        0.55647924795796        1.57523918162839
C            2.64848081657898        0.43553075277051        0.22699368874461
C            3.71268740612859       -0.31112415522386        2.47218724446481
C            4.31327837788736       -1.55677905540061        2.28930185395388
C            4.96494398824856       -2.16947633306740        3.34296793793350
C            5.63007783102258       -3.53668196184716        3.12100058009262
C            4.56136835584413       -4.55823732169952        2.69105214817623
C            6.69846602184650       -3.40904591536352        2.01942234132464
C            6.31331300002439       -4.05763447491932        4.40021429334683
C            4.99850913218794       -1.51594099812051        4.58926202771033
C            4.41197347991561       -0.29042289109712        4.78694333026191
C            3.76711794238239        0.32906430647454        3.71897878623815
N            3.09755920773557        1.56726067157251        3.62494081564561
C            2.98409418088342        2.53921859038246        4.67462052674784
C            1.78519538410488        3.19429549502772        4.93462739586179
C            1.69961431871890        4.11615829183618        5.95714891720720
C            2.80227159715923        4.39187573893280        6.73802038615766
C            4.01096263625476        3.74406729841942        6.50106482388045
C            5.19778116166409        3.98997551855097        7.32955466501512
N            5.10395593562005        4.90028019094743        8.28776495778956
C            6.20681859390172        5.05049186594522        9.00037779655857
C            6.21991315992322        5.99366541788917       10.12430840717685
C            5.15244769894726        6.83185372500979       10.42910573495148
C            5.23445065537186        7.69144561032271       11.50586369603938
C            6.37083674701943        7.72529571629943       12.28966699255802
C            7.44701672335247        6.89188769325764       12.00472195126854
N            8.64423235613388        6.88301100908311       12.79657248957260
C            9.96291344814708        6.82242931229732       12.29594198337171
C           10.45858963944989        6.84025537659109       10.99466858687709
C           11.81457335971226        6.74883352030897       10.79970451575107
C           12.72435898846165        6.63831036009131       11.86778019039597
C           14.23984812941162        6.62409595451632       11.60625276405117
C           14.73104929226946        8.07613851347331       11.49027119443961
C           14.99563301278087        5.92458267438624       12.75407562621837
C           14.56923418003348        5.87131432484427       10.30241943221147
C           12.22802810906298        6.63350685641422       13.15793629243510
C           10.85256092198362        6.71596567132910       13.37479894131435
C           10.06102279180926        6.68019412100087       14.58101777519638
C           10.40946742140985        6.52057685389453       15.92171478160703
C            9.42226728021455        6.45731897967984       16.88656701236861
C            9.82386950061042        6.25764674921603       18.35587031400358
C           10.56354276238181        4.91476773769310       18.49876289769549
C           10.74872398141744        7.40855119755573       18.79339530429889
C            8.59806535145762        6.24020938288151       19.28930177643794
C            8.07633573864119        6.55387759705221       16.48496789101549
C            7.71589143744152        6.71025120329216       15.16906921614217
C            8.71429690531679        6.78053139304688       14.20136340334633
C            7.35132233480343        6.03761339594909       10.92293582246494
N            7.33530730540749        4.39038427852134        8.80959872222275
C            7.30925866266393        3.50892534980233        7.82658186002424
C            8.54344046304544        2.73367429197230        7.65011379302262
C            8.58297018583285        1.51295491872788        6.98162384588807
C            9.74125634269919        0.76224681950535        6.97269359881986
C           10.86786251113390        1.21006700571845        7.64367932798426
C           10.83320781955741        2.42258676749502        8.29460753028143
P           12.18651387826324        3.11735753371300        9.24541707291558
O           12.43123987813441        4.57474212027364        8.77422013295096
C           11.78417734561357        3.12611043568391       11.00367642048697
C           10.50056621492883        3.37289272027198       11.43321257658167
C           10.22770692237812        3.44429613968455       12.78646537029599
C           11.24430935384206        3.26887707026894       13.70364327394064
C           12.53115504109462        3.02013481184938       13.26939672152716
C           12.80068078817363        2.95341517578412       11.91394177198309
C           13.66003734626820        2.13690134359401        8.96713646103587
C           14.66895885125771        2.67933652050496        8.21034516111056
C           15.81836268098653        1.94509718961670        7.97675111597464
C           15.93835257201673        0.67371527050261        8.50388118273684
C           14.91575270363082        0.13504485614963        9.26112522294605
C           13.76864223335768        0.87193771914267        9.49375549794931
C            9.70231640244712        3.19056105399468        8.27737100113796
N            6.26678284858355        3.25489661448069        7.05768133213585
C            4.08449779721537        2.82833776412546        5.46329890864613
H           -0.28869473992360        1.40771258905030       -3.04509191151488
H           -0.34131291499590        2.42742530548078       -1.61157670249140
H           -0.45875276590696        0.67760832265395       -1.44882172385266
H            1.71375327258086        0.01430909896641       -3.57670018293357
H            1.55192350382099       -0.80156273368839       -2.02734316493744
H            3.09027304396967       -0.05687685734869       -2.48510651386452
H            1.96929867782878        2.49751655359119       -3.70909262081050
H            3.30199660537891        2.49454664399406       -2.55402295534944
H            1.88759145190331        3.50408859587108       -2.26748532734823
H            1.08522216327988        3.39674588980098       -0.14735365505510
H            1.68647800279194        3.62329400126789        2.21899532628779
H            2.93782404045330       -0.45300868109002       -0.30120977266251
H            4.26460597631295       -2.02620077209111        1.32440154667852
H            4.08234957686614       -4.26196524688619        1.75887166611414
H            3.78645021768165       -4.64738754813170        3.45188976916612
H            5.00180438352406       -5.54355836437816        2.54070372393998
H            6.25836474749914       -3.09226511928496        1.07492748510998
H            7.19984813808304       -4.36164214653329        1.85008796041854
H            7.45367777359341       -2.67513251493264        2.29943394917428
H            5.59178273195059       -4.18563754197030        5.20663115609587
H            7.09203743343024       -3.37328605613283        4.73584398967755
H            6.78110993298105       -5.02553412754435        4.22128028331573
H            5.49756963545174       -1.98506656293685        5.41814653847176
H            4.43879587378328        0.19107537862162        5.74780498782489
H            0.92128354593288        2.95634611258981        4.33927388371690
H            0.76591245702379        4.61818125304667        6.15084472964911
H            2.74458143060041        5.10371595541889        7.54282715899548
H            4.27068245716192        6.79710110801703        9.81348430176156
H            4.40661925183312        8.34224585506157       11.73499994907692
H            6.44416392754506        8.40575545971214       13.11979022646261
H            9.78137146206565        6.92160746015039       10.16371845655134
H           12.18737253100517        6.74227296666960        9.79095479168432
H           14.52676868357271        8.62760549697192       12.40758684673186
H           14.22805675868215        8.59057460788000       10.67204479461058
H           15.80410659646324        8.11264863296100       11.30466968571652
H           14.92043050761187        6.48627536844834       13.68398520936891
H           16.05553305398464        5.83080738580960       12.51908548920022
H           14.60181393772278        4.92377245833280       12.92422487086870
H           14.18015564688718        6.38879184613006        9.42741088046681
H           14.13681843452363        4.87263064957557       10.31479114609693
H           15.64596926637050        5.77143895648335       10.16914414988321
H           12.88186862390876        6.56672234341614       14.00637177844158
H           11.44648727249422        6.43268650386161       16.18741608428473
H           11.46862661707448        4.89499554691747       17.89316540806252
H            9.92831844197375        4.08983656034035       18.17724393929240
H           10.85115244790190        4.73591969495597       19.53445592539422
H           11.66374974821323        7.42895328212715       18.20310128563848
H           11.03123284366372        7.30489936272419       19.84076243937581
H           10.25025352229204        8.36989006563714       18.67196787528869
H            7.92504009954850        5.42075140336606       19.03894385207627
H            8.04417384228956        7.17647091355498       19.22669415965951
H            8.90448786767033        6.10760134716696       20.32664793977519
H            7.29950421005161        6.49796929289908       17.22632214459383
H            6.68327165141001        6.76281194589249       14.87448141406832
H            8.16906840597492        5.37872338059069       10.70129433983644
H            7.69088854948173        1.15768506838636        6.49568937228042
H            9.76443607937695       -0.18384024104586        6.45738331014526
H           11.77033977714852        0.62236411054983        7.65965087694789
H            9.70947366790144        3.51762579271610       10.71814609805729
H            9.22633589182882        3.65678845741908       13.12350677647753
H           11.03498673735796        3.33753531063458       14.75868368203285
H           13.32555861757540        2.88495392174876       13.98502186483803
H           13.80386097670987        2.77018902267405       11.56282283634129
H           14.54805826117699        3.67322679192534        7.80766622034762
H           16.61527259386558        2.36455235019886        7.38510791430366
H           16.83234113460439        0.09961226204086        8.32291923060721
H           15.01048046096293       -0.85729463310987        9.67030331014054
H           12.96096122042277        0.46819129541759       10.08401069905902
H            9.70329193731277        4.15885335181048        8.75401346835192
H            5.02000438809175        2.33864419962913        5.26773098286678
