150
 energy: -29.595830215211 gnorm: 0.000989384935 xtb: 6.5.0 (97a52f5)
C            0.68004642074305       -0.37550130674314        1.04309582106522
C            1.94180694643300       -0.52952010483188        0.17087040972459
C            1.56660118555637       -0.14902647474903       -1.27555057110392
C            3.02497940793842        0.43224804137255        0.68850215884371
C            2.49130484991842       -1.96395278160876        0.22438960458665
C            3.48911019274283       -2.36032178701218       -0.68563850904741
C            4.04966359794009       -3.61277540508453       -0.65613261222697
C            3.63178619762707       -4.51410732042584        0.31828590586432
C            2.63285930897657       -4.14372099831085        1.23150807090444
C            2.06846078025456       -2.86838906985073        1.18245207700919
C            2.48264366137387       -5.23429457135802        2.16670389790342
C            1.70021895017644       -5.39109433215659        3.31209149050854
C            1.81802736001909       -6.53913914210361        4.07388072404393
C            0.99524197377550       -6.75758423081353        5.35297348096779
C           -0.08522926560373       -5.67216436224453        5.52648626811376
C            0.29505946110723       -8.12964997340530        5.29918038463969
C            1.93860783868972       -6.71126945901715        6.56796189747074
C            2.75822957841128       -7.51059405828790        3.68897784911612
C            3.54690967324818       -7.36885415879975        2.57531039742399
C            3.40855314737067       -6.22179767079320        1.80036194120460
N            4.14947936256102       -5.78200554594991        0.67897601975946
C            5.51490191226155       -6.17830924799552        0.45226913915606
C            6.42512964176266       -6.07153403306963        1.49749612608120
C            7.74910001970607       -6.40323457054653        1.32575253520396
C            8.19242624248600       -6.85350162390406        0.09725000846926
C            7.30835121439722       -6.97149337752157       -0.94999048240312
C            5.96458235120850       -6.63645518229903       -0.79920044290170
C            5.04125733518398       -6.85243216908677       -1.94688927808036
N            4.62513129003432       -8.09568326821482       -2.13292901722687
C            3.98545421282705       -8.29663137940253       -3.27018788599259
C            3.52285721529502       -9.66014886030238       -3.57495075806296
C            3.58857804916149      -10.13423074825130       -4.88107066236389
C            3.21328179696422      -11.42263798908347       -5.18442687109815
C            2.75514650392577      -12.26068657706411       -4.18527309791804
C            2.65248819584518      -11.79926602861487       -2.89245492965761
C            3.01634650575335      -10.49798915472586       -2.56550397805844
N            2.73201546628614       -9.99118185280142       -1.25131167773239
C            1.81393115175515       -8.95320488988033       -0.96723370806588
C            1.21096739225327       -8.00706172421662       -1.79203120508952
C            0.23973879515463       -7.19282555231521       -1.26565961096260
C           -0.19015490852189       -7.30079103896565        0.06968974175607
C           -1.35813224686664       -6.43736320242132        0.57467131193985
C           -1.98236621418529       -7.02911098162894        1.85350969695981
C           -0.84558756178078       -5.02548106339925        0.88544805944258
C           -2.46393273301602       -6.36317593958692       -0.49737381913689
C            0.45171650282431       -8.20081494867360        0.89984982227612
C            1.45083680994604       -9.02745074016407        0.38616885646282
C            2.20159937403707      -10.11096005283390        0.97574095802929
C            2.22316648693239      -10.65032608248900        2.26237552614228
C            3.01670850572618      -11.74855722134141        2.53704552879953
C            3.01681876856855      -12.34788212729505        3.95275496253738
C            3.60736840433351      -11.32639431659453        4.93996101183807
C            1.57232698843627      -12.68902109604229        4.36575430197228
C            3.85599335911306      -13.63846793223576        4.02782970919127
C            3.80291382933287      -12.28965713812323        1.50223249581789
C            3.78959147009305      -11.77577978590396        0.22907014661619
C            2.97651827232672      -10.68037929968397       -0.04401307658220
N            3.77261533527039       -7.37513386449667       -4.19213372176161
C            4.14259127662533       -6.15282246391458       -3.85904910982056
C            3.92903854594164       -5.09257105830418       -4.86839313707527
C            4.99041917524128       -4.22507400200566       -5.13029932173688
C            4.89793852175823       -3.25925598050952       -6.10534269936812
C            3.73652802984626       -3.13550941034262       -6.83757563947374
C            2.66627991372167       -3.97267955813253       -6.57283955405664
C            2.74902765569739       -4.94640290479507       -5.60406739023463
P            1.16094930439478       -5.77662423936334       -5.28116643212797
O            1.23793057623176       -7.24493004580852       -4.79642790107267
C            0.33395518256856       -4.81704176392781       -4.01368410516553
C           -1.02647404364225       -4.62168028959726       -4.04763341030423
C           -1.63083128173730       -3.84967003159749       -3.07263586668554
C           -0.86654390434851       -3.29686998085230       -2.06462241308759
C            0.49309963679299       -3.53211842021100       -2.02066189828180
C            1.09774858216286       -4.29714391199236       -2.99825433073720
C            0.16098993166007       -5.76043218334378       -6.77554094244372
C            0.12251244236746       -6.92896616211490       -7.49582525203308
C           -0.62238098333892       -6.99219235534232       -8.66077961076298
C           -1.31950290043929       -5.87973269509699       -9.09032408815238
C           -1.27551510975734       -4.70812654675481       -8.35961030465004
C           -0.53210452250730       -4.64856531168953       -7.19559808631795
N            4.80520260764740       -5.83244129057108       -2.75964425220531
H            0.26305172052039        0.62659947616271        0.94612152277448
H            0.90583834406966       -0.53317115681563        2.09712125327712
H           -0.08979784621699       -1.08653677031414        0.74397011595459
H            1.15502865863856        0.85917996509131       -1.31518585348227
H            0.81628436184977       -0.82903254525936       -1.67588631124842
H            2.43127708079287       -0.17397869797222       -1.93642550276995
H            2.67216000435583        1.46312622694106        0.67503294714838
H            3.92319183698897        0.37553447694397        0.07454974850938
H            3.30406500166906        0.18321927048810        1.71200586121246
H            3.83075464347673       -1.65706996185384       -1.42439359610248
H            4.78516145450329       -3.91993994028730       -1.37736262307626
H            1.32876205658419       -2.60362415570717        1.91384561375667
H            1.03310763866219       -4.60014660405731        3.59780503404694
H           -0.75564540898928       -5.64496937059362        4.66820548342381
H            0.36219582820695       -4.68604382687451        5.64625153742581
H           -0.68898872705143       -5.86637925361451        6.41268302508091
H            1.01511950919749       -8.94504802871188        5.26246272301352
H           -0.34297116976872       -8.20711384188385        4.42038049599715
H           -0.32799948324461       -8.28248611217528        6.18005455315027
H            2.45115173508127       -5.75114746377787        6.62111776965274
H            2.69614213511557       -7.49185160200945        6.50690354304650
H            1.38625416540732       -6.85197441046615        7.49671184343297
H            2.87765805994865       -8.38465909495307        4.30190190720829
H            4.26092015434545       -8.12059185110375        2.28876144769794
H            6.07292276111464       -5.71324920711579        2.44936643961978
H            8.43955924297600       -6.31175678749643        2.14821431140727
H            9.22867841462550       -7.11663476209142       -0.03915062072469
H            7.64259133060453       -7.33657407548026       -1.90601218958676
H            3.94359954358024       -9.47048344123763       -5.65046121121839
H            3.27710655496813      -11.77806623432414       -6.19986580268604
H            2.45970200349755      -13.26968997345615       -4.42195080006606
H            2.25275950753557      -12.43239495333398       -2.11947497225001
H            1.50462660403014       -7.92001930752314       -2.82464213681114
H           -0.19976687464472       -6.44305731753992       -1.89828130100864
H           -1.27913593275564       -6.99949043250044        2.68345009223070
H           -2.28869362743730       -8.06281844460859        1.69554734734672
H           -2.86220506467020       -6.46075269608517        2.15419030500470
H           -0.13552014554102       -5.04992077080093        1.70757318754505
H           -1.66169959801787       -4.35881660874616        1.16280262870855
H           -0.33486003734843       -4.60390531257023        0.02426951877414
H           -2.79502905846807       -7.36220594456746       -0.77930743880806
H           -2.11892860315446       -5.85647203651615       -1.39614221909060
H           -3.32871606505241       -5.81348238324290       -0.12671954756499
H            0.17871197505100       -8.29964907285833        1.93277757802105
H            1.61204947649762      -10.20693630845449        3.02574151862113
H            2.98828934636126      -10.43386277956128        4.99597255808468
H            4.60814943309241      -11.02483781635528        4.63195704425440
H            3.67370891461586      -11.74617152695943        5.94340359360056
H            0.94608571989903      -11.79852061620537        4.39807947439317
H            1.54778882464831      -13.14646408956674        5.35450815835345
H            1.12519759502363      -13.38774545799290        3.65921078841340
H            4.90254708032697      -13.44143858393649        3.79749789218228
H            3.48191375562629      -14.38999190079409        3.33305397275407
H            3.81698407406083      -14.06682471924182        5.02918165186131
H            4.43330082638180      -13.13638061054897        1.70603590727863
H            4.39322580452242      -12.19792126719076       -0.55460013311745
H            5.89625598190004       -4.33771130669626       -4.55966305593433
H            5.73283408023558       -2.60571339206981       -6.29951608884185
H            3.65681053693656       -2.38139898398563       -7.60333624196285
H            1.74878657446273       -3.85135827894628       -7.12522806433270
H           -1.61154004726950       -5.07045716330473       -4.83399030126759
H           -2.69509840602150       -3.68127392124833       -3.09977605329615
H           -1.33408909958548       -2.69314870483000       -1.30384787171178
H            1.08501362749294       -3.13675152711471       -1.21554387131052
H            2.15602269373286       -4.50419743563504       -2.96264582287237
H            0.66987392060476       -7.78555594119208       -7.13159372115742
H           -0.65992540078720       -7.90817239203303       -9.22738459834185
H           -1.90155943500330       -5.92595744802968       -9.99621063394018
H           -1.82189888763831       -3.84150763655244       -8.69456254152776
H           -0.49633666922006       -3.74180478043071       -6.61330594371292
