129
 energy: -26.172939434768 gnorm: 0.000596314436 xtb: 6.5.0 (97a52f5)
C            1.51860681723065        0.98848975046533        0.04522217071592
C            3.02503203765888        0.68138784809348       -0.06302929948943
C            3.49882542962228        1.06567742501740       -1.47654271384694
C            3.76824003595454        1.53072680130735        0.98439085604055
C            3.32148411502299       -0.80617675574742        0.17974644940435
C            4.65396075238721       -1.25644249189646        0.15275251759154
C            4.98537801980827       -2.57858787424776        0.31945582244050
C            3.96627349394010       -3.50290988348772        0.52508362257371
C            2.63078424661785       -3.07335612902712        0.56380254985299
C            2.31206793786909       -1.72762937359111        0.38730591686194
C            1.80215474157150       -4.25252733457074        0.66464005618554
C            0.42675974336460       -4.44021565455405        0.51912937653380
C           -0.08373325569897       -5.72234720441423        0.43524587448332
C           -1.55970855151712       -5.92750014995289        0.06927507173051
C           -2.45292549403723       -5.31843805491674        1.16265091682485
C           -1.83295530258659       -5.23518214147508       -1.27930600057022
C           -1.90307051510770       -7.42277250114018       -0.07946892762831
C            0.79445927513521       -6.81068319434958        0.57404312531830
C            2.14677047354168       -6.64637463045153        0.72189648915829
C            2.66409210550771       -5.35715330339613        0.72708699309492
N            3.99590946141375       -4.91120634555900        0.61408046343960
C            5.15037287914388       -5.75328795684524        0.46831114934168
C            6.21093460053916       -5.59318305969658        1.35258279388998
C            7.30343813226363       -6.42785693847683        1.31201653346814
C            7.35793664332617       -7.44672235083603        0.38124409843107
C            6.32512816460008       -7.61622590684048       -0.51117308437574
C            5.21454882104034       -6.77827040826714       -0.50046657927930
C            4.15728534391791       -7.00141924011061       -1.50468380797248
N            4.01307072115543       -8.23532814915970       -1.95463496059084
C            3.05105903822982       -8.39371804882835       -2.84543329999723
C            2.87652493999663       -9.76701025173082       -3.39677115934197
C            3.35742255819138      -10.07179777370353       -4.67092190008829
C            3.19745492922463      -11.33207339004471       -5.19995639605190
C            2.55776944374173      -12.31322273343806       -4.46926684838503
C            2.07236148991546      -12.02364399496634       -3.20682396524977
C            2.22856934518738      -10.76528702311157       -2.68093477075264
P            1.53934872983052      -10.38905238506813       -1.06736733076096
O            0.65755631404482       -9.11826609260436       -1.09433592813264
C            0.49966587199363      -11.74521688474846       -0.51413076815469
C            1.05581621987552      -12.95187178748163       -0.16190428236628
C            0.23516301009627      -13.98080218394416        0.26266573491000
C           -1.13087686678043      -13.78763066950524        0.33538919068077
C           -1.67893504616142      -12.56737607793189       -0.00890814649306
C           -0.85476305329847      -11.54052855726008       -0.43263552795543
C            2.84014386289965      -10.26698774142909        0.15913444648376
C            4.14692018533196      -10.54163116041226       -0.16528390368276
C            5.13054356046068      -10.41498685760887        0.79762090678465
C            4.79443687979157      -10.01367819094944        2.07545349292482
C            3.47690621706003       -9.75232116280630        2.39639343555126
C            2.49366014245748       -9.88608893348674        1.43218988596279
N            2.25988036125194       -7.43920715926569       -3.30784178787286
C            2.48911879902677       -6.24857231443009       -2.78730861128951
C            1.64316554060182       -5.12342352012706       -3.21217460904273
C            1.79131649386242       -3.90843226025779       -2.54707185210494
C            1.02283024516514       -2.81348117498101       -2.86645615646084
C            0.08713495596762       -2.90604960269030       -3.87476844096445
C           -0.06129885858975       -4.10185233108777       -4.55909656162592
C            0.70323901795913       -5.19753875458495       -4.23785545037378
P            0.35227293714280       -6.61535064055953       -5.30274144355531
O           -0.63445082698752       -6.13332153436470       -6.39987524906535
C            1.81592618624360       -7.21247789107519       -6.16325766536465
C            3.05279000616157       -6.64181564438234       -5.97432267052040
C            4.14007829717114       -7.10975208438405       -6.68767429422593
C            3.97570108857113       -8.13579759917367       -7.59736437573846
C            2.72722080942705       -8.69255042235582       -7.79541925220700
C            1.64186641601576       -8.22461379682902       -7.07542430959751
C           -0.52735597049354       -7.90677834960324       -4.40903032002564
C           -0.05346056358716       -9.19176513664451       -4.31203490156788
C           -0.80496695232988      -10.15862052938702       -3.67143438307770
C           -2.04074763050816       -9.83334145704144       -3.15200656423923
C           -2.52304277567444       -8.54494960800675       -3.26993563143001
C           -1.76169494859847       -7.57869125101294       -3.90443193127204
N            3.43672804740673       -5.96972112762984       -1.90607619410963
H            1.32826701366914        2.04962025242568       -0.11312053301343
H            1.13551862727606        0.72806872392050        1.03137277750006
H            0.95015841253747        0.43836724647574       -0.70395783724084
H            3.28678177984398        2.11325693186943       -1.68796640265226
H            2.99418473867858        0.46045393497810       -2.22905087940167
H            4.57111229496175        0.91264718393377       -1.58933779108215
H            3.55304545253938        2.59039521833694        0.85034293292180
H            4.84664340352469        1.39956674030483        0.91040195651885
H            3.46485598006834        1.25013215425594        1.99248041053083
H            5.43897003345082       -0.54129555876592       -0.02011788662025
H            6.00585792461136       -2.91346632679308        0.26828628120177
H            1.27920277540804       -1.43570168746427        0.39354267767984
H           -0.21104064856053       -3.58488052115584        0.39586218625809
H           -2.27407083557035       -4.24922218641950        1.26741686419715
H           -2.25550248374257       -5.78717595488364        2.12614178762416
H           -3.50725798742168       -5.46006142801050        0.92723584277847
H           -1.68151643512123       -4.15894672893391       -1.21255835068218
H           -2.85622541922568       -5.40891164802576       -1.61016424769131
H           -1.15743211824314       -5.61758515247288       -2.04341436295616
H           -1.74929195372786       -7.95746104130825        0.85702164384622
H           -1.28483642188158       -7.88789499476839       -0.84752609828718
H           -2.94540932802769       -7.55501207924952       -0.36696819299535
H            0.41236876395093       -7.81055720030833        0.48952893755708
H            2.81505434218685       -7.48791890219798        0.74277970096637
H            6.15026422271177       -4.81274787189292        2.09113234213529
H            8.11237601911435       -6.29233578044080        2.01098893229405
H            8.20909039696222       -8.10714497134943        0.35286797152074
H            6.36219614753163       -8.40465995642365       -1.24258911257911
H            3.83185795055240       -9.29427349371489       -5.24193364195875
H            3.56782128669122      -11.55065881326793       -6.18809808591601
H            2.42991109211352      -13.29970429081172       -4.88345579396886
H            1.55631716087014      -12.77879568749863       -2.63729388667279
H            2.12523938081562      -13.08200863244741       -0.21319546991397
H            0.66231974592783      -14.93093337833508        0.53867780689739
H           -1.77019684800970      -14.58950561798238        0.66643816538821
H           -2.74361841150349      -12.41330769280156        0.05400959990135
H           -1.25392730436426      -10.57302076414371       -0.69115399590874
H            4.39559300315141      -10.82712366739960       -1.17452703706518
H            6.15886952476689      -10.61774173976549        0.54699121810753
H            5.56245555658700       -9.90316860167619        2.82325228016913
H            3.21434069650563       -9.44166573034022        3.39432426036983
H            1.45857344637623       -9.68871142876821        1.66402951909131
H            2.51505747095428       -3.85460741635572       -1.75430614127286
H            1.15095410978772       -1.88937298045461       -2.32757670865548
H           -0.51938257618867       -2.05425657309350       -4.13422429160557
H           -0.77240970164696       -4.18692751626905       -5.36832107611009
H            3.16577260923648       -5.84045365915070       -5.26337288810744
H            5.11309713360291       -6.67274611248534       -6.53398257620495
H            4.82203644533646       -8.50017281239731       -8.15613534948589
H            2.59649152249154       -9.48793469133236       -8.51059451318928
H            0.65501788263861       -8.63252561539258       -7.23188654085044
H            0.90636753091099       -9.43246455534489       -4.73382087968728
H           -0.42631782672747      -11.16250059114704       -3.57888137043547
H           -2.63508026622680      -10.58764538338118       -2.66319902544070
H           -3.49457853498615       -8.29302079324037       -2.87759489872864
H           -2.13714609820425       -6.57584885744926       -4.03853791322252
