104
 energy: -19.842239510152 gnorm: 0.000294045577 xtb: 6.5.0 (97a52f5)
C            3.13120053194768       -1.62822509750198       -0.80483241985839
C            4.46013972413865       -1.46420843216807       -0.04463682311006
C            5.32404934267746       -2.72460636052636       -0.23367834707615
C            5.21781031740406       -0.26360380473583       -0.64338920792924
C            4.16674433898716       -1.26854231126657        1.45061382041634
C            4.55894617477557       -0.10659615686875        2.14405453840959
C            4.30114235117260        0.06521200473493        3.48147438805525
C            3.62819081031176       -0.93880210164291        4.16850559752357
C            3.22320842495225       -2.10195920597147        3.49776285120176
C            3.49778117713500       -2.26270303805907        2.13995958996359
C            2.60635194886244       -2.96528163018960        4.47585212036150
C            2.09010184044168       -4.25826882735604        4.39106415766560
C            1.59897984293754       -4.87534298255315        5.52676445568638
C            1.08882659062329       -6.32326132726852        5.51075313483407
C           -0.35386893159316       -6.36766445818142        6.04757938155721
C            1.09471473588418       -6.91650551232514        4.08867172278633
C            2.00258467447892       -7.18191199171984        6.40325529633988
C            1.60948295892612       -4.16740889687738        6.74266002065365
C            2.11190772479808       -2.89478001917829        6.84255665036545
C            2.64363311528374       -2.29261628671458        5.70682479102252
N            3.32686902609975       -1.07026443747563        5.53739395088766
C            3.82974878317338       -0.19110589286290        6.55941634829863
N            3.57614134428444        1.09049397342803        6.44111515900207
C            4.01495082701526        1.84745212704423        7.46688098441105
C            3.77685948879731        3.23656992663498        7.44724733020211
C            4.17903074489447        4.03845505899785        8.47542176866932
C            4.83915373259520        3.48988780312878        9.57540900462798
C            5.08810003884296        2.14930003924534        9.62690211571280
C            4.68932308840543        1.29081468534355        8.58253805156479
N            4.97957110816176       -0.02313339570276        8.66484648538046
C            4.58226075245906       -0.73633921997203        7.63810965014295
N            4.92256478908771       -2.13417425069883        7.62314513819854
C            5.47257883641891       -2.88109565264555        6.56063906509354
C            5.99043069920915       -2.48256444620761        5.33238987689876
C            6.34194174758071       -3.44257499027345        4.41702022097410
C            6.20794338864867       -4.81739210358889        4.68880757869911
C            6.53307002965056       -5.88928403110496        3.63877199038861
C            7.59774239213783       -6.85015635364687        4.19897170585948
C            5.24834477056705       -6.67010582184722        3.30636027394587
C            7.07410385444105       -5.26948857038383        2.33661230328480
C            5.73562299130846       -5.20922022671924        5.92717841344312
C            5.37582923497044       -4.24637681852163        6.86952612615689
C            4.81837624088771       -4.34683154237566        8.19699210910860
C            4.47845430636932       -5.43766036638850        8.99689868348773
C            3.89930856038020       -5.22952030773402       10.23484855188636
C            3.54295435567188       -6.44236810840037       11.10812105648040
C            2.58456360179310       -7.36795294371567       10.33570265799882
C            4.83193718906160       -7.20823747171775       11.45737678509048
C            2.85420379225199       -6.02187751367367       12.42077540190516
C            3.66718265240122       -3.90745582583309       10.66275282409191
C            3.99441050503422       -2.82283954408146        9.88753621679066
C            4.57556405432019       -3.03975433515878        8.64344389204599
H            3.30545538258954       -1.75123296215411       -1.87356476022247
H            2.49738810390051       -0.75291524266445       -0.66451916663179
H            2.57965866760600       -2.49992146056350       -0.45486417021200
H            5.56243867009869       -2.87992722415983       -1.28568478038993
H            4.80948987030888       -3.61517332047852        0.12490541929013
H            6.26157357728930       -2.63306018104916        0.31424111697344
H            5.41753196965545       -0.42257362749177       -1.70298400304721
H            6.17658416295012       -0.11726739971196       -0.14647802883001
H            4.63560474724600        0.65308103419587       -0.55275191444715
H            5.07947610063073        0.67300455889215        1.61743809525348
H            4.60504761986066        0.95005656835791        4.01112412080361
H            3.19266312804381       -3.16665238692336        1.64646977064432
H            2.10392322232654       -4.75964342283769        3.44207183259759
H           -1.00668620509993       -5.73309346007711        5.44864134626076
H           -0.40593513094750       -6.02292236845008        7.07938111431558
H           -0.74964091523214       -7.38263912000514        6.01737952857380
H            0.46513455780173       -6.33201418073349        3.41811032734434
H            0.71325494176922       -7.93743658744833        4.09413810494608
H            2.10372708250091       -6.94600377012232        3.67876507838410
H            1.99653945570523       -6.82084449553893        7.43033939199954
H            3.03126863540003       -7.14958100242773        6.04563031875250
H            1.67843048426178       -8.22230717033294        6.41080083140591
H            1.23355981658718       -4.64865188176287        7.62862390180814
H            2.13724142024515       -2.37057563243490        7.78100001830919
H            3.26216997436587        3.65046158816018        6.59779336346652
H            3.98572908234744        5.09819763845297        8.44092306902690
H            5.15388818754207        4.12878339433975       10.38434160069865
H            5.60132454726702        1.71852009500369       10.46882148648727
H            6.07290767318587       -1.43403427608147        5.10891735659090
H            6.71190329252145       -3.12541823348088        3.45852938708619
H            7.23878235588969       -7.36601644457572        5.08856518160510
H            8.50233192199728       -6.30592243585239        4.46944295379322
H            7.86668262187970       -7.60673211014018        3.46211988963808
H            4.84810348181075       -7.16661386096770        4.18926736926733
H            5.43853182441284       -7.43295152132162        2.55170754598039
H            4.48061924051323       -5.99857023679273        2.92256714458561
H            7.98674438813050       -4.70301235718003        2.52031868780471
H            6.33728611510780       -4.60558701361253        1.88643130302559
H            7.30756334876280       -6.04447729290069        1.60671826890639
H            5.61765550846946       -6.24914951577767        6.16853904717138
H            4.66945027561382       -6.43163614908605        8.63739747610409
H            3.05336175132594       -7.76141763060621        9.43488102918806
H            1.68381369955107       -6.83001168431000       10.04074703746689
H            2.28433716494300       -8.21718728895844       10.94919775292755
H            5.33226518423549       -7.56936540162036       10.55962097269901
H            4.61553699115957       -8.06974505551312       12.08875904107465
H            5.52926928515712       -6.56384634149327       11.99224058483755
H            1.93186485122104       -5.47648950752816       12.22209965397434
H            3.50782313376569       -5.39203387053739       13.02370381583732
H            2.59794666762748       -6.89573676958745       13.01960880915491
H            3.21923111707083       -3.73392632163470       11.62465884730569
H            3.81549232796684       -1.81426966729624       10.21403039080233
