61
 energy: -12.960085305031 gnorm: 0.000467176948 xtb: 6.5.0 (97a52f5)
C            0.67561882015385        1.36364651652703        1.00744963871278
C            2.17179819376752        1.05881760198029        1.20455267203913
C            2.87089429600843        2.34792847395589        1.67805863704208
C            2.34487991456538       -0.01505973785779        2.29401383123931
C            2.76473178926079        0.54099350713382       -0.11485679353677
C            2.23127162445223       -0.62421166282572       -0.69563458078641
C            2.72486742042657       -1.14629184057218       -1.86478413486731
C            3.78704626976671       -0.49724698956814       -2.48917118784374
C            4.33999768572387        0.66903203143110       -1.93345608674338
C            3.81527868736659        1.17841883623705       -0.74302992118805
O            5.38299389585632        1.13004845658931       -2.71801027058682
C            5.52043850878129        0.25828244341176       -3.78602003025409
N            6.42110930375084        0.33769895667685       -4.76860731345480
C            6.34798769304357       -0.64538061732219       -5.66939884977730
O            7.16320091641427       -0.81577898063031       -6.77579429653359
C            6.74938236337810       -1.96502514378449       -7.42834898269563
C            7.24603540712006       -2.58080332811205       -8.58140980450232
C            6.66037369197577       -3.73510260492820       -9.02766189642171
C            5.56759242034538       -4.31242249364109       -8.35736446153338
N            4.98020111888449       -5.53010127688624       -8.85359287867968
C            5.57903792272767       -6.80293112143240       -8.83112575534900
C            6.82021017016151       -7.21653755940442       -8.34951788333170
C            7.15418265818867       -8.54440089110144       -8.44752113989582
C            6.27331727968501       -9.46930652760308       -9.01727903425607
C            5.04636377318260       -9.07765016739669       -9.49533834388772
C            4.69077158510539       -7.73065262921773       -9.40220940297128
C            3.50660831979336       -7.00384511171371       -9.79340428337159
C            2.31772795942565       -7.39815537113611      -10.41030564138868
C            1.36107925154705       -6.44570501259905      -10.66516715967816
C            1.56559596542025       -5.10670132332637      -10.31683743232998
C            2.72813365688501       -4.70324225146338       -9.70831173060240
C            3.70874167995281       -5.65778513687384       -9.44216308325864
C            5.06321625668171       -3.71412421324923       -7.21999931361947
C            5.65696472124517       -2.54369493020361       -6.75513649926131
C            5.39481509480069       -1.70474616038178       -5.62494215966596
C            4.46005926769976       -1.78235841657720       -4.61243654064215
C            4.53816527818859       -0.76890828745096       -3.67774550885525
H            0.23493356566263        1.76031035284608        1.92144631135650
H            0.12080723053461        0.46799317921991        0.73290182840523
H            0.53454489475016        2.10048372647604        0.21756623813984
H            2.43752502727577        2.70137359935774        2.61310706334701
H            2.76344375439871        3.14490703505188        0.94321365373365
H            3.93266325654219        2.17754353027558        1.85201782034359
H            1.95122656973851        0.33098719658078        3.24905091928057
H            3.39821602189424       -0.25697344784577        2.43100200014834
H            1.82239141981432       -0.93364761726425        2.03167740099730
H            1.41378769154861       -1.12266077410039       -0.20519724240111
H            2.31303088009992       -2.03998092752936       -2.29929907822059
H            4.25669438693065        2.06882542590359       -0.33914343025687
H            8.08067992494206       -2.13715243777752       -9.09360602252919
H            7.02931433490463       -4.22308117612929       -9.91276322516221
H            7.48838088051622       -6.49709873696059       -7.91084678815348
H            8.10941897414169       -8.88049694852566       -8.07913658878551
H            6.56230903067374      -10.50538633189296       -9.08048922297027
H            4.36328401553711       -9.78352959651367       -9.93358844141741
H            2.16854633937626       -8.42928984637791      -10.67762812412338
H            0.43907044796250       -6.73307471676605      -11.14300434079832
H            0.79860461379846       -4.38087036189745      -10.53149386105292
H            2.89751490345754       -3.67590600558771       -9.43924199142888
H            4.23192931704037       -4.15161773708489       -6.69993997453702
H            3.73460165674697       -2.57165442011209       -4.55262728116391
