61
 energy: -9.892767077806 gnorm: 0.005471134939 xtb: 6.5.0 (97a52f5)
C            0.56022567407470       -0.39636607239967        0.23164113527601
C            2.06720104830741       -0.30981866706312        0.53964158076538
C            2.47947035494279        1.17198317819531        0.63135497311674
C            2.36020750708549       -0.99984826577140        1.88527660555788
C            2.83941480447064       -0.95768352796080       -0.53637208996640
C            2.75081012183555       -2.23750892407266       -0.97605209020566
C            3.52531755138617       -2.74400253560493       -1.99288634546493
C            4.47327581473825       -2.01480459408220       -2.65984207970978
O            5.29268655039253       -2.32361339991633       -3.65269501352348
C            6.19087893080233       -1.59757779166679       -4.19697049772618
N            6.15720273972280       -3.93166390648998       -8.44498242254096
C            7.15896955816879       -3.50991180564452       -9.10002577893472
O            8.21896742673850       -2.85568474092286       -8.69874085577102
C            8.97236915332361       -2.52712977685215       -9.71770219328414
C           10.09566405414927       -1.81642509353276       -9.69837680734599
C           10.57049081977295       -1.58441319412331      -10.92511458953433
N           11.59571957337807       -0.82320913191717      -11.19479842531740
C           12.33785546971427       -0.15387068483215      -10.38471242496008
C           12.36786014219280       -0.05511600838591       -9.05312669059783
C           13.17397336443651        0.80256432535860       -8.41662143066396
C           13.67259999256065        0.65276850713493       -7.19930349251953
C           13.14123316257113        0.15309226633939       -6.04986772544791
C           11.80857899254528       -0.02340629406807       -5.75986343279183
C           10.76757412466312        0.29477854800239       -6.57325563764202
C            9.49711942959441        0.11866033137601       -6.29516953805655
C            8.47447948515254        0.31486367939848       -7.12680793405224
C            7.16025429617103        0.06475108521651       -6.87657483424081
C            6.18193109131039       -0.17887351062764       -7.79149405353907
C            6.40956567724860       -0.23558973070185       -9.14255867928200
C            5.43450217842965       -0.54976004942462      -10.08416363784144
C            5.65960378400439       -0.62115412157593      -11.43837888545175
C            6.82137688465769       -0.37444134389564      -12.00670497313198
C            1.58686210562155        0.12289633143020       -3.53644948921783
C            1.83029257466762        1.34668605453120       -3.20620426870377
C            3.05032894181487        1.88354279037291       -2.92994859329620
C            3.31453386591117        3.13820118091844       -2.59162500319624
C            2.47191008032027        4.10423371574745       -2.45838410243564
H           -0.02364954311725        0.10767422444492        1.00112969262760
H            0.22697875324249       -1.43200651506774        0.18198874031377
H            0.33518073344349        0.07370405540533       -0.72516752279498
H            1.93766148831827        1.68068149318603        1.42792343496476
H            2.26669226822450        1.69081147462917       -0.30216405319243
H            3.54611025586094        1.26503208677825        0.83214741891863
H            1.81645531156074       -0.52111691885878        2.69889247641770
H            3.42374917881341       -0.95338436016372        2.11771597014612
H            2.06976608881839       -2.04927477758747        1.85749099934891
H            2.03285963778068       -2.88594884857689       -0.50194314986738
H            3.38934667277418       -3.77269741850919       -2.28500273780883
H           10.15516260874906       -0.95938555831972       -8.41527728272867
H           10.58282654158428       -3.27878332479039       -7.95083221145792
H           14.00682744643301        2.20375382681466       -9.14552857020401
H           13.85098074212587       -0.08441437731323       -5.27311448468376
H           11.55325690046002       -0.44126162370420       -4.79879072510591
H           12.26317368504645        9.25966488852649       -3.19844180662924
H            9.04849167862403        8.17202620458286       -5.03688513736437
H            5.18465448803869       -0.36923641326109       -7.43133308324525
H            7.41465695824757       -0.06833067754761       -9.49183356147937
H            4.44461642521032       -0.77247125750230       -9.72022694339982
H            4.84144619441413       -0.89810779887914      -12.08313734391665
H            7.64031765557232        0.76743729535209       -4.05683632530635
H            6.18164051206678        9.13566550117469       -5.98672407224199
