85
 energy: -16.541975531678 gnorm: 0.000770699317 xtb: 6.5.0 (97a52f5)
C            3.55050162895635        0.33231986591801       -0.16426602559816
C            3.94091384854175        0.05654026012149       -1.62931871056688
C            3.74314818983106        1.35131319639292       -2.43809053755544
C            5.42447649130418       -0.35562253111139       -1.66367650772950
C            3.08766358892485       -1.06112060614262       -2.24818887481059
C            2.04594840149166       -1.68698133092337       -1.53721515246007
C            1.28324640565563       -2.68586222892281       -2.08615290708055
C            1.54013662292691       -3.10298917995873       -3.39287069041688
O            0.93024892734694       -4.08031673053342       -4.15956927822203
C            1.56673454534378       -4.10077431093872       -5.39011487194667
N            1.28105652475230       -4.90223305585784       -6.41895110695579
C            2.05160638903643       -4.71986914313109       -7.49413104657529
O            1.97515358911222       -5.41659990069835       -8.68825431150393
C            2.95694919268618       -4.91672666194565       -9.52659785322890
C            3.30177366023089       -5.28615225779616      -10.83001598333365
C            4.32987185083705       -4.63616219168930      -11.45713192113482
C            5.04674935340973       -3.60717715657312      -10.82172709916433
N            6.12598712968598       -2.95982780765008      -11.52533812169199
C            5.99669467241718       -1.86646608863855      -12.40319130439399
C            4.90244978530863       -1.06076086254108      -12.70468758535532
C            5.04973152133499       -0.07062554655070      -13.64475843391045
C            6.26933044279111        0.15220316973335      -14.31421277618338
C            6.42529776726358        1.24343025231710      -15.38476811166618
C            7.54480595915340        2.21409347296857      -14.96564012304825
C            6.78676970539396        0.58499007984715      -16.72897389569332
C            5.12791891205401        2.05284095978020      -15.57374376046956
C            7.35182759554066       -0.65105238563741      -14.00989422912761
C            7.22234056101788       -1.66024470051722      -13.05488431234916
C            8.13951751562344       -2.66292650765842      -12.56862076791715
C            9.46336719533939       -2.96330120166294      -12.89205349893703
C           10.09379455361522       -4.03475099150408      -12.28848223776255
C           11.54428159464073       -4.36370850675788      -12.67448222670490
C           11.60445665849076       -4.69685678272440      -14.17663883126141
C           12.44067520048596       -3.14752474109596      -12.37708013880316
C           12.08885832173240       -5.57099585931347      -11.88707838761933
C            9.37603662904765       -4.80433477661197      -11.35159292308722
C            8.07171230002662       -4.52672147147265      -11.02403698850258
C            7.44246276829497       -3.44673644117091      -11.63646486171155
C            4.71872850129468       -3.23094180307488       -9.53387729040039
C            3.67367333909751       -3.88729430227757       -8.88653243741252
C            3.09928807126917       -3.75651456847235       -7.57981433493983
C            3.39109319003682       -2.92660557054766       -6.51519460473913
C            2.59721311333325       -3.11607708706715       -5.40020473744609
C            2.57343469826725       -2.48204286751198       -4.11534059592118
C            3.33955187018188       -1.46635471033698       -3.54406207894531
H            4.17611287592417        1.11668029518119        0.26098288460187
H            3.67727966642351       -0.55901522162436        0.44947120311644
H            2.51487681366853        0.66218503980457       -0.08865628294906
H            4.32927600273179        2.16777797429553       -2.01720949446450
H            2.69561428407803        1.65104881116232       -2.43378768745220
H            4.04977107276254        1.22037746604371       -3.47489859480300
H            6.05249552895659        0.41059101421530       -1.21005340223706
H            5.77129306771283       -0.50732773499221       -2.68473386209907
H            5.57790506573946       -1.28523047891978       -1.11644556443468
H            1.83418863514570       -1.37665674774490       -0.52980160222145
H            0.49105641977651       -3.15870981665065       -1.53389130643253
H            2.75306596943779       -6.07383659537740      -11.31407111329545
H            4.61071155819235       -4.90570279867451      -12.46034900334817
H            3.96586326701942       -1.22834965433217      -12.20317631916227
H            4.20099669028049        0.54798515453108      -13.87487872532668
H            8.50138459062908        1.70150982348311      -14.87494452001625
H            7.31730595702195        2.67102571995171      -14.00304122558951
H            7.66346330247714        3.01180649992524      -15.69838067430570
H            7.72826945635948        0.04145943651130      -16.66314625252082
H            6.88774274556183        1.33255838934462      -17.51523786625786
H            6.01383678456412       -0.12090998586111      -17.03149138615300
H            4.83583765123169        2.54769949803161      -14.64803795705663
H            4.30891452145511        1.41207610601001      -15.89895091321480
H            5.26133380563846        2.82446366857437      -16.33157319637201
H            8.29410775717760       -0.51782632415359      -14.50783425726343
H            9.97532463719767       -2.36111345986542      -13.61927562527432
H           11.27941138571043       -3.85241745924408      -14.78281097282711
H           10.95872986927838       -5.54321993651931      -14.40890810368836
H           12.61926487945080       -4.95338997561066      -14.47932082492537
H           12.13309499953742       -2.27694731428369      -12.95456678961220
H           13.48036908230243       -3.35996899551014      -12.62455239395010
H           12.39231483792893       -2.88306653724610      -11.32121004046211
H           11.50204923342534       -6.46712146886909      -12.08639304966917
H           12.07598627901696       -5.37819747753031      -10.81479301977956
H           13.11920427231408       -5.78393150557210      -12.17087857348366
H            9.85701492899578       -5.64029135402772      -10.87639210654179
H            7.52879403782701       -5.12367342140349      -10.31291553999202
H            5.26409341866498       -2.44777059193635       -9.04158879887098
H            4.17432777340719       -2.19289334675503       -6.55107256133548
H            4.11886809175075       -1.00776508446629       -4.12371200601501
