63
 energy: -13.408709439492 gnorm: 0.000596034795 xtb: 6.5.0 (97a52f5)
C            3.32465315975104        0.86464202955449        0.27584732803347
C            3.71032118477887        1.65123052964332       -0.99175524334453
C            3.58115510094398        3.15514505978369       -0.68740137386144
C            5.17132519668355        1.31721934615101       -1.34517144077988
C            2.80793503410317        1.29512081394737       -2.18283738846239
C            1.77716750432461        0.34143898773658       -2.08392575273776
C            0.97697754142803        0.01612484186920       -3.14898428005627
C            1.18395217854049        0.64481466223644       -4.37734652579019
O            0.53416628655783        0.48978642910479       -5.58900548444353
C            1.13539972895919        1.34416799293048       -6.49787284552803
N            0.81443842236681        1.49284181866622       -7.78530053447519
C            1.56420256402897        2.37853004152407       -8.44555381945956
O            1.45903276597947        2.71644999007446       -9.78397767533630
C            2.43312508268557        3.66187948635197      -10.05583172550480
C            2.75649781293424        4.31249546521501      -11.25068285875201
C            3.78347065748768        5.21685127220831      -11.26252109418540
C            4.51754674813136        5.51502802813693      -10.09861621136186
N            5.59521988471689        6.47517200982134      -10.14536240666005
C            5.29943152156425        7.85343833206670      -10.25299043313142
C            3.98089754423896        8.30721376106261      -10.31914621871581
C            3.69765089782288        9.64589974924268      -10.42384249886613
C            4.72590090430050       10.57405904925161      -10.46281786995678
C            6.03069246686359       10.15229961158640      -10.39267681466038
C            6.33567403153472        8.80089910319069      -10.28530254923213
C            7.72917535804881        8.37590354674897      -10.19901472030397
O            8.64126344288073        9.18790579491438      -10.22329858086376
C            7.99374795678651        6.94557442650035      -10.08203112815492
C            9.30363976826565        6.48972903046256       -9.99479328643172
C            9.57459545711099        5.14762705247976       -9.89353928191425
C            8.53393731648764        4.23267865453004       -9.88121484071940
C            7.23427876628248        4.66573200045174       -9.96576175512366
C            6.93307709317481        6.02537463075198      -10.06266329084706
C            4.20673228819524        4.88026592148208       -8.91054483245329
C            3.17066768489721        3.95214327912465       -8.89258294246590
C            2.62241220583556        3.13064419351496       -7.85650509326422
C            2.95114952638003        2.97985477641552       -6.52488500027639
C            2.18081728376705        2.05879638306534       -5.84323670526453
C            2.20680132564042        1.60183945607529       -4.48674112850738
C            3.01305869242996        1.92154341032625       -3.39555577393327
H            3.97263521400812        1.13394544943443        1.10916533710832
H            3.42299210586446       -0.20849042949013        0.11694236105481
H            2.29918542625097        1.07945430659896        0.57388698287308
H            4.19592998538399        3.43423719734081        0.16743458279153
H            2.54793892008019        3.41357672782390       -0.45890884003917
H            3.89734696866407        3.75995642221073       -1.53574724624445
H            5.83589026204483        1.54587192163576       -0.51297203192189
H            5.51016303289899        1.88760565434851       -2.20845332079688
H            5.27754421569352        0.25916488905748       -1.58120414597200
H            1.60640464157481       -0.15413171810925       -1.14530871436605
H            0.19444571203266       -0.71618288934489       -3.06364836927734
H            2.19461489733618        4.08533636927973      -12.13866462701204
H            4.05134094267773        5.72056974646016      -12.17476580527106
H            3.18095153349968        7.58961523374610      -10.28409437370196
H            2.67361961835991        9.97717935564858      -10.47622178939751
H            4.50159224769273       11.62455405517582      -10.54628171648783
H            6.84328214903000       10.85837171541579      -10.41743225125468
H           10.09889431437496        7.21552933397668      -10.01077673182743
H           10.59442150413992        4.80616326329162       -9.82688044758157
H            8.74701896425599        3.17921019885494       -9.80565250585682
H            6.42901824510923        3.95327207866677       -9.96178672230519
H            4.76010399130134        5.10123194436406       -8.01730719910048
H            3.74693806693010        3.52927663502792       -6.05838938320095
H            3.79080865387409        2.65253157036634       -3.51421896444325
