34
 energy: -7.758377501461 gnorm: 0.000943420166 xtb: 6.5.0 (97a52f5)
C            0.82091870361027        0.00888421932532       -0.08933304064834
C           -0.39915039942998       -0.01392661523461       -0.06132117909612
C           -1.80944008969260       -0.05038921048328       -0.04596919844586
C           -2.51087854192941       -1.23576662608898       -0.04130820402224
N           -3.82163410100807       -1.29742202477767       -0.03856110697202
C           -4.45573760097330       -0.12462062139339       -0.03999664469005
C           -5.86716869790736       -0.16605131131367       -0.04742115540926
C           -7.08840696586434       -0.21435560951512       -0.07029478770102
C           -8.49556826186959       -0.28436880131204       -0.11853729753451
C           -9.14325482566926       -1.51458887442379       -0.14014703851568
C          -10.51884882257433       -1.58460160510402       -0.19437658452117
C          -11.26890608378129       -0.42727115855148       -0.22774786645110
C          -10.64115368022419        0.80101895961072       -0.20610588716234
C           -9.26557969366581        0.87290853953958       -0.15190961224460
N           -3.88850429987238        1.08198524010545       -0.04091770868075
C           -2.57616177211288        1.09395493505448       -0.04375034562510
C            2.23156393887282        0.02499380859498       -0.14365203958980
C            2.92893816876984        1.22747072052958       -0.17277869210082
C            4.30623212126266        1.24084917466073       -0.23279106169882
C            5.00834327495834        0.05380511023095       -0.26449505320497
C            4.33101881892089       -1.14758495424653       -0.23540624864308
C            2.95378784798532       -1.16270232216744       -0.17543537778427
H           -1.96849191169647       -2.16777609409504       -0.04390489375622
H           -8.55220632169351       -2.41406268520499       -0.11537793350609
H          -11.00821384129412       -2.54452794238471       -0.21175752848500
H          -12.34428101678400       -0.48271853985340       -0.27143066638156
H          -11.22635329534231        1.70548963199584       -0.23259561180331
H           -8.76983914445396        1.82839299211968       -0.13614021474352
H           -2.08683408411672        2.05486897456770       -0.04813479810800
H            2.37595126853651        2.15082717536465       -0.14917284326027
H            4.83452087397380        2.17980319970910       -0.25596315478988
H            6.08489450348246        0.06496148220851       -0.31268557447186
H            4.87851865444989       -2.07542412771893       -0.26052218798657
H            2.41998527712730       -2.09734503974913       -0.15375846196745
