63
 energy: -13.124625895458 gnorm: 0.000795647017 xtb: 6.5.0 (97a52f5)
C            2.13302702566083        1.57968358309480        0.50146741198048
C            3.32409525837036        1.69021403876914       -0.46841942582745
C            3.92110311490565        3.10582796779275       -0.34405918426495
C            4.40888213383636        0.66968931518465       -0.07770747527328
C            2.84353252541821        1.39901169891516       -1.89805120276767
C            2.25874323911577        0.15239240776144       -2.18771469092202
C            1.80703719746156       -0.17291010851093       -3.44105012426135
C            1.92687732699684        0.75874582360994       -4.47280890227730
O            1.55876686194527        0.68018319200961       -5.80513949820115
C            1.90097297314022        1.88195344406023       -6.40423020723524
N            1.71710997595817        2.21548581730429       -7.68411104726212
C            2.14271955905084        3.44001576570155       -8.00502954198723
O            2.07854270748715        4.03824034631023       -9.25273449222469
C            2.63461107994622        5.30288479895893       -9.14051499944540
C            2.81884251906140        6.30245931775764      -10.10029635487214
C            3.40845188291978        7.48247376194883       -9.73337020813453
C            3.83321484151670        7.71867491809638       -8.41147080384861
N            4.46111013075395        8.96457643671353       -8.06175291577745
C            5.62017829726482        8.95460749280898       -7.21931033781088
C            6.53576581088132        7.90702184218326       -7.28584251638004
C            7.64429646043960        7.88893169935870       -6.47028323378873
C            7.85925906081946        8.91561092006296       -5.57186371603610
C            6.95924442227673        9.96022880951526       -5.49099306621217
C            5.84956509394198        9.98020058850732       -6.30529286571199
C            3.92670083645086       10.19394601475170       -8.56708917743530
C            2.55614062430821       10.34462404094254       -8.76389378911538
C            2.04242274255858       11.52081232411066       -9.26132011577298
C            2.88714465293945       12.56827891787131       -9.57273808254512
C            4.24897547871507       12.43406798942403       -9.38582069644266
C            4.76500137860565       11.25866313791456       -8.88897686336364
C            3.65340391258442        6.73803357302256       -7.45336229414223
C            3.05806794995949        5.53415447476787       -7.81880471302027
C            2.74676759465186        4.34549385629235       -7.08473041746314
C            2.93519665825431        4.00096233386362       -5.76144145512901
C            2.49617337068582        2.73440644511447       -5.42909453869711
C            2.50862360764794        2.00749066944289       -4.19565487856251
C            2.96553265817293        2.32391737136584       -2.91661675207800
H            2.43899623586961        1.80762869768901        1.52204477811737
H            1.70980756269891        0.57623865633273        0.49785319743661
H            1.34400580597115        2.27729607148285        0.22229301814668
H            4.25369584248029        3.29612070855394        0.67588467189176
H            3.18261416213465        3.86593085376966       -0.59716659895918
H            4.78265187057873        3.22724716261852       -0.99972282868121
H            4.78359765796991        0.86454910610781        0.92660668193343
H            5.25058917766508        0.71992925756529       -0.76763920089641
H            4.02099124202205       -0.34763035853160       -0.09627062184484
H            2.16413237694760       -0.57091787843692       -1.39696231467994
H            1.36202313222556       -1.12915316279564       -3.65003966289742
H            2.49768728120134        6.12316137435686      -11.11050062202598
H            3.56523656558871        8.25669719125777      -10.46372959346632
H            6.36672749214916        7.11332198560549       -7.99236442233427
H            8.34530885864251        7.07284660604013       -6.53387886110099
H            8.72775784697230        8.90071587935799       -4.93407264071931
H            7.12471161158970       10.75981031807574       -4.78760721901319
H            5.13728299908109       10.78350867962630       -6.23521617864223
H            1.90216659116340        9.52781705450365       -8.51322636917730
H            0.97980906983095       11.62469919659790       -9.40799742051090
H            2.48398350857566       13.48847120164382       -9.96268303581428
H            4.90942963141195       13.24923434334735       -9.63228934812288
H            5.82645508636433       11.14238722837113       -8.75715410629266
H            3.97018219543261        6.90384500893288       -6.44093585684610
H            3.38879774566060        4.66351689029699       -5.04856466768816
H            3.40686748506002        3.28785290081982       -2.74882760549623
