62
 energy: -13.076721769796 gnorm: 0.000746926011 xtb: 6.5.0 (97a52f5)
C            3.15698017190627        0.56579960050174        0.65680923947046
C            3.35075310804123        1.82060221507324       -0.21602519054019
C            3.03557946032700        3.06096434536067        0.64061573933240
C            4.81881462598365        1.86877645677161       -0.67855414359041
C            2.43309857605482        1.80819283625966       -1.44788722743982
C            1.54706180903046        0.74718984667726       -1.71427547353057
C            0.73284203560501        0.73364461652275       -2.81870904601961
C            0.77631930234117        1.80226423034803       -3.71480918697674
O            0.07419651389002        2.02763673944829       -4.88611647595551
C            0.49556113264010        3.24419301634079       -5.39879655111315
N            0.06842680472342        3.82902080874700       -6.52081568651099
C            0.64248986974764        5.00534981746379       -6.78771825487115
O            0.39324494094648        5.81875231322125       -7.88027233602230
C            1.20239880995541        6.93791587181446       -7.76309889437954
C            1.32875673587922        8.05562068950607       -8.59327937585612
C            2.20898006935449        9.04685123952449       -8.25153313375533
C            2.98987844265888        8.97148411032686       -7.08039277551576
N            3.90143050489892       10.03904652382181       -6.74427696615172
C            3.40961339986695       11.28993559314204       -6.28454769942911
C            2.05072136217603       11.53045441458501       -6.16448407147722
C            1.58189762227440       12.74902522351078       -5.71295493157451
C            2.47080748357808       13.74395225400066       -5.37217896034694
C            3.82922348533233       13.52146033859494       -5.47802255756547
C            4.32088317145911       12.30356621053819       -5.92782788960738
O            5.69995469952700       12.12005007017434       -6.00705105474020
C            6.17372991576028       10.89012467967854       -6.45880720573628
C            7.54450719880850       10.69005527070530       -6.54959990426265
C            8.05942831976194        9.48999114064712       -6.99750735037491
C            7.20944513471147        8.47053833978482       -7.36447580500257
C            5.84203299113021        8.64907884923092       -7.28081470067497
C            5.30585246284781        9.84373854411776       -6.82888777752866
C            2.87394455176443        7.86908776467710       -6.25150326502102
C            1.98284697768792        6.85621035127201       -6.59466582250305
C            1.63084436364853        5.62058182254227       -5.96497510191957
C            2.07255106520201        5.01534578501482       -4.80529325605753
C            1.48110328118860        3.79751065679972       -4.53088615310253
C            1.65571737051758        2.86795988975851       -3.45728543931597
C            2.47810840757933        2.86782863831205       -2.33137183310017
H            3.81385454774934        0.59483072523363        1.52551264043615
H            3.39022729996378       -0.34023095500391        0.09877127249442
H            2.13289473411615        0.49556397577216        1.02145434137694
H            3.66467788294693        3.09149253489773        1.52938654320715
H            1.99533144488695        3.05111933930649        0.96369718075522
H            3.20356195704615        3.98078084226437        0.08281679136700
H            5.49708636540992        1.85615158325719        0.17383459986096
H            5.02397320453475        2.77073736989388       -1.25303927430860
H            5.05183633135164        1.01087993350975       -1.30829689117127
H            1.50227228866650       -0.08449841172837       -1.03453356350074
H            0.06085502116220       -0.08275248201526       -3.01338347539309
H            0.73204187059895        8.11452024717632       -9.48559181324876
H            2.32268472113877        9.91142349120060       -8.88175965410995
H            1.35728807216417       10.75135412445040       -6.42590570435872
H            0.52134598895851       12.91951837920177       -5.62760450495267
H            2.10754375782105       14.69577841439438       -5.02109157409319
H            4.53438013722721       14.28837776587009       -5.21109213198564
H            8.19701036207457       11.49576842885652       -6.26379824331318
H            9.12629564374817        9.35284912228084       -7.06177015495128
H            7.60954663753596        7.53450661504449       -7.71788516246519
H            5.17704784804591        7.85647830023693       -7.57385765487204
H            3.45877077219469        7.80291316773138       -5.35349045201034
H            2.81660048090803        5.45554469219810       -4.16853515397630
H            3.14340645092357        3.69490168114646       -2.16769144202287
