37
 energy: -6.095465405043 gnorm: 0.000766903143 xtb: 6.5.0 (97a52f5)
C            1.34728620973494        0.28267293480678       -0.61021749387763
C            2.72379447145640       -0.08961089404396       -0.03215728659881
C            2.77905970989228       -1.62291785169217        0.11824157595930
C            3.83347398793596        0.34173339784566       -1.00538068426459
C            2.92262904272258        0.63048978957071        1.30894989264318
C            3.20140279369899       -0.06545975772115        2.46923547014984
C            3.38346515461815        0.59492393515826        3.66242125944019
C            3.26727568176339        1.96615107099885        3.71699815748332
C            2.97824896980613        2.72021451090735        2.59150663526652
C            2.79117352508705        4.24525771838524        2.71763154181626
C            2.77350278387286        4.69243555733974        4.19809372951341
C            3.96183554574141        4.98702478344266        2.04305516138666
C            1.43224517940285        4.66864775586679        2.12207306637916
C            2.83932351867512        2.04163969934598        1.35661091875224
O            2.63128079007920        2.69966965970345        0.15554969406559
H            1.17467442309208       -0.21376819662462       -1.56482253624147
H            1.27266817257642        1.35671610998431       -0.77249469121148
H            0.55056836567486       -0.00866285281609        0.07366296336838
H            2.61057671742983       -2.11137202979926       -0.84147217944395
H            2.01220133542157       -1.97727666343071        0.80676503194463
H            3.75258362212748       -1.94795792468193        0.48436399936717
H            3.72043750799467       -0.14797797901135       -1.97226235478781
H            4.81578303008425        0.08689417151408       -0.60832127438793
H            3.80693084494762        1.41816770950912       -1.16764117178690
H            3.28532982925387       -1.13744551764517        2.44934261711296
H            3.60725952499804        0.03752305897312        4.55765863440669
H            3.40510589534398        2.44910406831475        4.66771593168860
H            3.73145805445605        4.50438021850257        4.68190468228350
H            1.99224028652458        4.17587584493622        4.75522484171946
H            2.57863315526938        5.76214321211005        4.27463765171343
H            4.90493404195114        4.71398933781986        2.51633213114390
H            3.84218854937187        6.06596082254580        2.14074583870489
H            4.05928401755577        4.76472941352237        0.98344191406419
H            0.61821270700047        4.17488158492609        2.65203725129725
H            1.32772111315579        4.41828823826057        1.06986693230991
H            1.28589918613354        5.74427521628823        2.21719356643945
H            2.80262225515073        3.65868984687648        0.24902858217724
