35
 energy: -5.818254391259 gnorm: 0.000443957305 xtb: 6.5.0 (97a52f5)
C            0.91831896139138       -0.04045342676246        0.07305027754029
C            2.45001330098728        0.06808804573579        0.00950092838156
C            3.02511231624323        0.27417322653924        1.42091766821672
C            3.02196879913486       -1.23434996714608       -0.57432803341778
C            2.84069374088654        1.24389034240684       -0.89180111714690
C            2.50448618429613        2.53124262552720       -0.52386898481437
C            2.85309962307586        3.57882100898393       -1.33683803304619
C            3.52314754282983        3.29999003296323       -2.50064522679761
C            3.81892632687404        1.98814912412712       -2.81819338596370
C            4.56024575794021        1.61048929778785       -4.10689541542809
C            5.89560213202120        0.95886863531865       -3.71767679359830
C            3.69719577544163        0.59764422968176       -4.87511970152279
C            4.83338938204381        2.82501620361577       -5.01129371505139
N            3.48634423693465        0.97084033839516       -2.02453606742322
H            0.61217005173308       -0.88880314450169        0.68489460827842
H            0.50121818027145       -0.17486301840153       -0.92477155302078
H            0.47676054863474        0.85855201288041        0.50176656304598
H            2.79360021301177       -0.57540803326055        2.06318109089592
H            2.61497941550442        1.16694662464790        1.89118432913429
H            4.10876841417819        0.38299336202031        1.38256180891505
H            2.75668931437799       -2.09357904325812        0.04155943982657
H            4.10854001395462       -1.18200776759989       -0.63719214209134
H            2.63945579497746       -1.40446762283286       -1.58026944012993
H            1.97047811688671        2.71004991074889        0.39324534441138
H            2.60655813715275        4.59358573741654       -1.06864744861827
H            3.81016476467601        4.10194605922458       -3.15723251901472
H            5.72697311022719        0.08483951005688       -3.08897590833008
H            6.51715004890308        1.65725311082033       -3.15778618990617
H            6.45048048137221        0.64085288201474       -4.60019712124696
H            3.50111348367500       -0.28174487150090       -4.26219722731420
H            4.19214854486485        0.27113168857311       -5.78960234681121
H            2.73680782076420        1.03621729878972       -5.14508317142191
H            5.47134247947845        3.55293908259622       -4.51076108917176
H            3.90434049810096        3.31737546340051       -5.29775138530974
H            5.34033648715444        2.51797104099141       -5.92594804204879
