61
 energy: -12.965684540103 gnorm: 0.000819678104 xtb: 6.5.0 (97a52f5)
C            1.70252571873321        0.87757552110434        0.54923904755996
C            2.61531773881527        0.13975947990148       -0.44544688407595
C            1.80982975486785       -0.96176701861228       -1.15481630067066
C            3.12955762446471        1.14256151008435       -1.49273163661450
C            3.75789377227904       -0.51395223328843        0.32944922775594
C            5.09743940671393       -0.27130454093527        0.10769399925932
C            6.09674097327584       -0.90401458283602        0.85365152105931
C            5.78053069746357       -1.79944356738142        1.84322904631834
C            4.43518306945524       -2.06661080954803        2.08866666232546
C            3.42601805811389       -1.43335284092489        1.34129321079381
O            2.17570911830022       -1.84956941990391        1.76052850717421
C            2.36298117166546       -2.74728923526270        2.79803879283617
N            1.40616799942100       -3.36460587595802        3.49560639853487
C            1.85576117294869       -4.17260546574534        4.45760733575154
O            1.08663342732293       -4.92054793635461        5.33449732953010
C            1.95250067564171       -5.59934929817493        6.17400663619169
C            1.68469412423714       -6.45818098193963        7.23877582455209
C            2.72899782509527       -7.01762874403772        7.94868231210815
N            2.45627169896513       -7.86796467107113        9.07420860607704
C            1.53808662214126       -8.93698265173201        9.10724696895797
C            0.74194176858019       -9.49089315830804        8.10521860049453
C           -0.07973881952353      -10.54444265716799        8.42128453065343
C           -0.12255407884738      -11.06100783869340        9.71951084191417
C            0.66041059880564      -10.53269050044139       10.71683858924921
C            1.50253201620222       -9.46250830312475       10.41011430471334
C            2.42605251643569       -8.69347511970511       11.20852491127250
C            2.78135372876728       -8.75644603744535       12.55706616938182
C            3.69140510790748       -7.84861446141706       13.04140642779211
C            4.25080533907882       -6.87617690736116       12.20754462442122
C            3.91176217186191       -6.80266074668738       10.87925296018204
C            2.99666926718696       -7.72253560493656       10.36813056430952
C            4.05814493897043       -6.72936620051305        7.58717076809836
C            4.34637115629365       -5.88446928052301        6.54829850942622
C            3.28945406414842       -5.31030639858681        5.83981014365762
C            3.23550700981216       -4.39310117268308        4.74197776811489
C            4.22344956948263       -3.75524664551077        4.01839357486890
C            3.75989718079830       -2.91245863606640        3.02711600177706
H            0.85925843846407        1.34198277278579        0.03946649126814
H            2.25380263350789        1.65617234421562        1.07503796673307
H            1.30894499738880        0.18571356327666        1.29357011652317
H            0.96602993990884       -0.54196433371890       -1.70108377786501
H            1.42269153823301       -1.67851119442991       -0.43085204923007
H            2.43692342272438       -1.50506894040012       -1.86067678398594
H            2.29913603639232        1.60027660287872       -2.02938271217244
H            3.76663481774289        0.65041397143299       -2.22665325481151
H            3.70005802928749        1.94198591876779       -1.02122889079965
H            5.38796024339685        0.42476901888024       -0.65882919251189
H            7.13109229861143       -0.68280670742080        0.64811029607706
H            6.54150274023397       -2.28900061304598        2.42489729570773
H            0.66784421012058       -6.65836032933920        7.51699753046112
H            0.78594599047910       -9.09411777200093        7.10682474719475
H           -0.70212486397749      -10.98052760943355        7.65734665058406
H           -0.77941656657589      -11.88633043873777        9.93973647229429
H            0.63357699965154      -10.92400169565557       11.71838893428460
H            2.33977062097762       -9.50254150186930       13.19366319459973
H            3.97489318008604       -7.88188934756098       14.08045532669752
H            4.95687511717195       -6.17170846999014       12.61540567537991
H            4.32783308185894       -6.04848907694179       10.23589806774043
H            4.85246825334351       -7.19499006366412        8.14340568898020
H            5.36136692237512       -5.65781029930578        6.27383463499309
H            5.26927773268411       -3.89479276694186        4.21753167609827
