25
 energy: -4.312278883557 gnorm: 0.000399692579 xtb: 6.5.0 (97a52f5)
C            0.98045451733942       -0.01608082984808       -0.13146685067454
C            2.51827241452088       -0.04661360245240       -0.07566514912863
C            3.08145706936237       -0.39639281944339       -1.46732593414180
C            3.01673199290907        1.36098651031088        0.28863548104194
C            2.95776842025626       -1.11442763312405        0.94009074012333
C            2.67193709148672       -2.44186584416626        0.66334219723530
C            3.02060101150728       -3.46034254832593        1.52706964943529
C            3.66712443453453       -3.16720466957387        2.70728741402388
C            3.95556087208553       -1.86139170587050        3.01846190595475
C            3.60928381198939       -0.81373885282108        2.15688945794159
O            3.91512055728939        0.48202981226971        2.53356359043869
H            0.62974802084874        0.73743006103829       -0.83619540717785
H            0.56572397680496        0.21850736624846        0.84846493793634
H            0.57706318484862       -0.97860596778814       -0.44331065359444
H            2.81326327632819        0.36631917659541       -2.19799385340563
H            2.69617700622969       -1.34789457326678       -1.83008416188924
H            4.16849559234785       -0.46437204573092       -1.43557989131250
H            2.70937549959249        2.09536104674509       -0.45551738315248
H            4.10387997469056        1.37806669043960        0.35641138819589
H            2.61942618510554        1.67126969132688        1.25411519057523
H            2.15580174158553       -2.68843056387003       -0.24816131628928
H            2.78610953116830       -4.48284655754446        1.27946876190474
H            3.94182230198445       -3.95897087732655        3.38527643845329
H            4.45500465020335       -1.62883506677272        3.94238560314865
H            4.36606686498092        0.47630380295089        3.40709784435742
