44
 energy: -8.054459551016 gnorm: 0.000264197894 xtb: 6.5.0 (97a52f5)
C            0.77282496351000        0.02867803417953       -0.05608281708902
C            0.04367923896757       -0.63176872557669        0.90963172318119
C           -1.33326786734101       -0.60542889780635        0.97096331665880
N           -2.04346059407427       -1.20010195476173        1.94573235353810
C           -3.45133347914939       -1.31478235014849        2.05625736314915
C           -4.23561041534366       -1.32017697836754        0.92355329637190
C           -5.61665642104900       -1.47792425060096        0.99535689130280
C           -6.23475329495346       -1.62809623838490        2.20036133167565
C           -5.48706161537250       -1.61775275622042        3.39622557424236
C           -6.10791401502017       -1.75361928573986        4.65710223033227
C           -5.37209879122212       -1.71676764138559        5.80135875258964
C           -3.98794796509514       -1.53950975637284        5.74319768531987
C           -3.35763209941738       -1.41065160927230        4.54164058590173
C           -4.08168297580124       -1.45548419648057        3.33362323887418
N            2.11247170266810       -0.04011483859444       -0.14948708887367
C            2.96581938150021        0.66176565413794       -1.03650356164268
C            2.59272553778376        1.89509648623319       -1.52414741525988
C            3.42820394279825        2.62995054929487       -2.36043097648805
C            4.64659611571094        2.14108317762872       -2.72543216253405
C            5.07892347345611        0.87851683661164       -2.26905692735764
C            6.32961540374627        0.34401889405920       -2.64829924679854
C            6.71908303910811       -0.88637913988618       -2.21635060472300
C            5.88151960864897       -1.64110406126688       -1.39199671116718
C            4.67017748981312       -1.15164082601999       -1.00382463986515
C            4.23519141959349        0.12254702914611       -1.41941623617571
H            0.25088943107755        0.61576956031833       -0.79038229345143
H            0.57616056285082       -1.19566104588260        1.65349673174059
H           -1.87646792058390       -0.06516206550010        0.21642059087985
H           -1.50355781190477       -1.66302040867920        2.67295731788763
H           -3.76140455658699       -1.23458260616901       -0.03776897837177
H           -6.19903837420032       -1.48872976542344        0.08850494855542
H           -7.30264446261342       -1.75246617978294        2.25156279484470
H           -7.17559731544694       -1.88258068467584        4.70240552802005
H           -5.85751229488791       -1.81801306647107        6.75838569906519
H           -3.41847696292369       -1.49948646953489        6.65743766567981
H           -2.29541838006041       -1.25025074555708        4.51346949497639
H            2.57670839901947       -0.63917540672552        0.52896711226286
H            1.64794780920853        2.30990970818359       -1.22135002519626
H            3.10988999093141        3.59678572422438       -2.71479692298145
H            5.29088186235426        2.71353202770928       -3.37016743795755
H            6.97198616663065        0.92230317858488       -3.28983984504708
H            7.67466010805802       -1.28554319765908       -2.51520437801597
H            6.19664115803791       -2.61925637440564       -1.06695927147319
H            4.02595080757828       -1.75369533696176       -0.38955468658231
