11
 energy: -1.409101710551 gnorm: 0.000585159973 xtb: 6.5.0 (97a52f5)
C            1.05588687602772        0.09011779615172       -0.02493002466777
C            2.56217901187389        0.06291598566371        0.00931105406122
C            3.10557715616188       -0.81139047018142        1.10980671777126
Cl           3.15727105121502       -0.54725059868679       -1.55020479661467
Cl           3.15726808771407        1.72000835487736        0.25105744717480
H            0.65303294433312       -0.91031235399288       -0.19099177419046
H            0.71289969496409        0.73423176255290       -0.83567991740168
H            0.65303157936996        0.47808334835326        0.91204305148197
H            2.77561543312627       -1.84391410072938        0.98426422361707
H            2.77561486602392       -0.45563620467125        2.08720334825092
H            4.19616329919006       -0.79782351933724        1.09273067051736
