10
 energy: -1.556551708700 gnorm: 0.000249685215 xtb: 6.5.0 (97a52f5)
C            1.11632246086976        0.04202624790951        0.02536436411366
C            2.60652161820317        0.04223907280751        0.02789694114822
C            3.34948343764585       -0.06425229153299       -1.25948544486062
O            3.20751239026652        0.12806740225731        1.06545890755536
H            0.71050082241259       -0.04133175326109       -0.98234568577711
H            0.74064702882075        0.96211854338359        0.47121650506459
H            0.74065080164108       -0.79230182920404        0.61634104447436
H            2.67669139151618       -0.13489543393401       -2.11358720686001
H            3.98759479800955       -0.94699808343697       -1.25200344956492
H            3.98760525061453        0.80771812501118       -1.39714597529354
