22
 energy: -3.343492262769 gnorm: 0.000675373218 xtb: 6.5.0 (97a52f5)
C            1.11967033118124       -0.45800150555377        0.22642410184833
C            2.50497607473630        0.16015453807759        0.07568622427095
C            2.43371051571294        1.54481221197530       -0.55864465075749
C            3.17342499442242        0.25398790306057        1.42787265857933
O            2.66343192475140        0.89509319190860        2.30594272752715
C            4.48835072817668       -0.44979639962627        1.67224835333865
C            5.58404102498260        0.58094896695431        1.92074723348274
C            4.34844564841972       -1.41154560849455        2.84667455647485
H            0.60296555870808       -0.52926267411918       -0.73143671605974
H            0.50865822662453        0.15101544207359        0.89284034653186
H            1.17543267865617       -1.45728013181491        0.66005666927103
H            3.11688242785990       -0.49360056371388       -0.56786861268080
H            1.86309448028656        2.21962207179622        0.07950440749211
H            1.94993359402628        1.51690029527296       -1.53618881238852
H            3.42787696645311        1.97617415911855       -0.68256415799611
H            4.74372614292206       -1.02834679806904        0.76885624740541
H            5.33477340636797        1.19002160943905        2.78960474001593
H            5.69454380543802        1.25530115215211        1.07062904972850
H            6.54886014710884        0.10725323124041        2.10785424546646
H            4.05852735224125       -0.86565654349873        3.74463956713699
H            5.28403820371449       -1.93179325503544        3.05656541896166
H            3.57664576721018       -2.15899129314294        2.65840640235063
