18
 energy: -2.569661500472 gnorm: 0.000407746672 xtb: 6.5.0 (97a52f5)
C            0.92535703066593        0.04027064635185        0.02098630136371
C            2.45375082456299        0.06579443352294        0.05527551836644
C            3.02351505457572        0.40100182085608       -1.31968523748069
C            2.99607234629132        1.06030622036667        1.10772784087309
C            2.53511793133612        0.74338228315005        2.52647867978346
O            4.41807891150512        1.13965502042758        1.04286026928145
H            0.55808209027630       -0.63242357000345       -0.75541066233356
H            0.52833312865199        1.03303925898621       -0.19212753074628
H            0.50003186148112       -0.29006037738069        0.96921755678733
H            2.81607560301243       -0.93398075996444        0.34695283294231
H            2.68470121229886        1.38456951467866       -1.64588843889767
H            2.71054019518595       -0.32345992959255       -2.07336742909089
H            4.11394269113949        0.42272021914160       -1.30152022492248
H            2.64411476861845        2.06647246373337        0.82895851207631
H            2.83553588603473       -0.26481973321166        2.80992814035458
H            1.45230743445635        0.81354543173432        2.63181626929809
H            2.98569645777736        1.43300142347622        3.24042134412164
H            4.80353657212977        0.27485563372724        1.30883625822317
