28
 energy: -4.238218101991 gnorm: 0.000469872979 xtb: 6.5.0 (97a52f5)
C            0.90298445650123        0.03745184938775        0.13893659187855
C            2.43093794121364        0.06750097558427        0.09373674722882
C            2.95545686551401        1.50238969604676        0.09392142052336
C            3.03853437765786       -0.74346881306275        1.25031395042086
C            4.53184264452622       -0.87142769364314        1.14979740849906
O            5.11813249764092       -0.57542440749944        0.14295528304040
C            5.26141545232994       -1.40802748346312        2.34815492286227
C            6.78436894681047       -1.21872505466205        2.25223733968616
C            7.15098893159470        0.26294517489785        2.18691458664751
C            7.50275212028240       -1.91561185527475        3.40802350432484
H            0.46777859627121        0.58204409436037       -0.70023819704003
H            0.53628402251977        0.49899760254293        1.05603980033345
H            0.52157186451972       -0.98423259530758        0.10926687585805
H            2.76309882735544       -0.41453933297820       -0.84331023350323
H            2.66818741876159        2.01837076538202        1.01032110610406
H            2.56012910753846        2.07445468185922       -0.74659101239350
H            4.04447888120674        1.52092387721222        0.03142664195128
H            2.59709925088214       -1.74506151569420        1.27509577822159
H            2.77409726398153       -0.27078390652002        2.20091043321069
H            5.02465301575256       -2.47086876895033        2.46179003433316
H            4.89255770929326       -0.91573854375988        3.25284789780482
H            7.10569909257338       -1.68920272569594        1.30559385785693
H            6.83610175582586        0.77898926732702        3.09413451826808
H            6.66162778027382        0.75029825422178        1.34238520239653
H            8.22722977260495        0.40588039558867        2.08064993106782
H            7.20306580160962       -1.48381105831803        4.36316764173248
H            8.58567482879707       -1.81231088634342        3.32563599884240
H            7.26929077616169       -2.98080199323803        3.44057196984369
