26
 energy: -3.746135757640 gnorm: 0.000434025770 xtb: 6.5.0 (97a52f5)
C            0.93317993132576        0.11775878160357       -0.07040886649603
C            2.44654319209303        0.05279416776473        0.16563713212017
C            2.73090755141466       -0.42424163005681        1.59207631829030
C            3.10701319817657       -0.83313046207715       -0.91704021874443
C            4.65355332698647       -0.76551872577195       -1.10527291702871
C            5.12989468771621        0.69437644957266       -1.17780440276535
C            5.39536570942227       -1.49701952205030        0.02801586727832
C            4.99766003071264       -1.46678847211338       -2.43536552755533
H            0.44088694434035        0.76571726922237        0.65694653486871
H            0.48783401833699       -0.87382124093423        0.01878786432014
H            0.69669768759813        0.49655488429797       -1.06643884116798
H            2.84318466579494        1.07694821885956        0.05627556097919
H            2.49967088345694       -1.48487168329013        1.69934223981452
H            2.11903995120953        0.11664359732710        2.31641852491941
H            3.76952572901771       -0.27395140388383        1.88286001302423
H            2.65478215294544       -0.57099624710364       -1.88009083168586
H            2.81861563875571       -1.87421807712260       -0.74511969988281
H            4.98926018130399        1.20568790730882       -0.22594407072039
H            4.58491056192299        1.24532169359172       -1.94446524977956
H            6.19141259343981        0.74372442397452       -1.42091328209823
H            5.35201304348420       -0.94573952913092        0.96439881908557
H            6.45071272605434       -1.61740902835326       -0.21901668323392
H            4.97836840493313       -2.49059435401593        0.19400497284286
H            4.50913493322926       -0.97435091284447       -3.27632180656427
H            4.67541681742359       -2.50807118837616       -2.42159773226388
H            6.07192543890524       -1.45103491639820       -2.61964371755687
