92
 energy: -13.515320314853 gnorm: 0.000195501854 xtb: 6.5.0 (97a52f5)
C            0.65369877713971        0.03253999482580        0.75209061990384
C            2.13536661762039       -0.11985978222723        0.40016254465241
C            2.29890195979977       -0.79970756679829       -0.96103390718722
C            2.84897862867948        1.24543183973842        0.44699621397691
C            4.36891258261310        1.15821811087956        0.30987949336404
C            5.05013881296057        2.52348439314716        0.40394060993275
C            6.58941321928842        2.46576871516151        0.34164553094738
C            7.07670309472651        1.92898380162315       -1.00542722849300
C            7.19036780852674        3.85177393314419        0.64949678434545
C            8.71003874485974        3.85108338784944        0.81448983826997
C            9.26470501679630        5.22378388249750        1.19556053558974
C           10.79106949381162        5.24530548076922        1.41144135427129
C           11.54453900096597        4.95845703658131        0.11139179361949
C           11.22976617559988        6.58531489735827        2.03503266103096
C           12.69185192512107        6.61437175895025        2.47993614127965
C           13.07601275474771        7.91524428360163        3.18524223615641
C           14.54251281257334        7.93988173177098        3.61530524215750
C           14.98103713639612        9.24931679392528        4.30117654568992
C           14.27224817916965        9.44318554298302        5.64261904930365
C           16.51392364457917        9.27946492604198        4.46054466899182
C           17.06805491552993       10.60883596708905        4.97346545104898
C           18.59616463497010       10.63027637153207        5.01190960996723
C           19.19841782360296       11.95997416685028        5.50862880283063
C           18.88051751424303       12.20125911733865        6.98533500360094
C           20.71676645993845       11.99094666359960        5.24385835511311
C           21.37704107182265       13.33805481187817        5.53762813355743
C           22.85869892626093       13.36262798869660        5.16219924466541
C           23.54544118938791       14.72097481005617        5.40464092576475
C           23.59812453944691       15.07232850357012        6.89300838597863
C           24.95027099116773       14.73229305308864        4.79748354618861
H            0.14130389987150       -0.93125808983850        0.75485606867659
H            0.14956275784625        0.67004867602530        0.02454550361009
H            0.51859352012183        0.48626118701351        1.73563719360191
H            2.60588980806982       -0.76409047855871        1.16466938551500
H            1.89823094003514       -0.16960621140154       -1.75618277402398
H            1.76472177812166       -1.75093809780643       -0.99707854083294
H            3.34500493154484       -1.00158962208749       -1.19560418448798
H            2.59991896915494        1.75297181592038        1.38692321196061
H            2.44205662267061        1.88851035889481       -0.34164894169442
H            4.62561722356440        0.68173363175132       -0.64244968881560
H            4.77101368459719        0.49170320720997        1.08300071610523
H            4.74286374234030        3.01450062651872        1.33531524430827
H            4.68470405091148        3.17586195345915       -0.39723578144981
H            6.92833579115573        1.77388018235804        1.13169319106338
H            6.75666380080799        2.58223861204810       -1.81808826286767
H            6.68587516602041        0.93174691014184       -1.21161221200270
H            8.16445516144080        1.86070663282827       -1.04726796161241
H            6.73060762928254        4.25210643199980        1.56126104411381
H            6.90418858275682        4.54973243742494       -0.14547494868584
H            9.18164772415045        3.50657729382096       -0.11201632992805
H            8.99753950569016        3.11418499110783        1.57477936971336
H            8.76327620290271        5.57284440500834        2.10644392406699
H            9.00228064233190        5.95783760849799        0.42530274049605
H           11.03433087709813        4.44835678094414        2.13496401592884
H           11.33159481356402        5.72627537515201       -0.63342979388053
H           11.26349690968098        3.99637908421306       -0.31874110544254
H           12.62447000335857        4.93819074358756        0.26302886795753
H           10.58872029242568        6.81218003577767        2.89562739193028
H           11.04278495042604        7.39283275046630        1.31814428508569
H           13.35103015880693        6.46253752855549        1.61710245992904
H           12.89074729573323        5.76442533401641        3.14479148030826
H           12.42458496985935        8.06196986469674        4.05466000145956
H           12.87008970435556        8.76765818651416        2.52580775937558
H           15.17513562166739        7.76034559379906        2.73741706117376
H           14.74525707203719        7.09989628229419        4.28936942121130
H           14.69911196685877       10.08414513194754        3.63693574135754
H           14.53218723863812        8.64064761265600        6.33400029351607
H           13.18706682587977        9.44378633354697        5.53310035842870
H           14.54725037997220       10.38695469538507        6.11534503598962
H           16.98208078316744        9.04423840867218        3.49691753273927
H           16.81903776861509        8.46839624890339        5.13151636931577
H           16.66875590983491       10.81536010599627        5.97227127235553
H           16.70379568048613       11.42903919871618        4.34240351086232
H           18.98157127981341       10.40917225177002        4.00911573645377
H           18.96311014576560        9.81459050988472        5.64514091251166
H           18.74159067129143       12.77303999491778        4.91881541394142
H           19.33132641527546       11.42647822070159        7.60677651813218
H           17.80696522946337       12.19273663396130        7.17764950961611
H           19.26098890647927       13.16316077890409        7.33155502721917
H           20.90702895729182       11.71917909365441        4.19840091437249
H           21.19913434046707       11.20481099292141        5.83577159205853
H           21.26085127996011       13.58364178986750        6.59892422698737
H           20.84767884361919       14.13319311990340        4.99803584716948
H           22.96753012585572       13.08487194297204        4.10666115495826
H           23.39553306955694       12.58596626592660        5.71869668676922
H           22.94274140197590       15.49142100974015        4.89073223480963
H           24.13914953272361       14.30622602113265        7.44998276131096
H           22.60203748434869       15.15619446607462        7.32992387087289
H           24.11094888417821       16.02141650599933        7.05958236041987
H           25.57853777420761       13.97491337827245        5.26816608083402
H           25.43946672366652       15.69798041066296        4.93735923365307
H           24.92713312387447       14.52073223900612        3.72685180491145
