8
 energy: -0.968677735664 gnorm: 0.000198848253 xtb: 6.5.0 (97a52f5)
Br           1.09016992795341        0.04396380499977        0.07938905495260
C            3.00725024552224        0.06569194781375        0.02379214579818
C            3.55994023007221        0.57622679068186       -1.28233426849559
Br           5.47702088656544        0.59797839930059       -1.33798466222503
H            3.35294122959824       -0.95252592486685        0.21852625935355
H            3.35294391125781        0.68195002264559        0.85740661985094
H            3.21423708346680        1.59444034999724       -1.47707497899250
H            3.21423648556385       -0.04002539057196       -2.11595017024215
