23
 energy: -3.696819809518 gnorm: 0.000382836465 xtb: 6.5.0 (97a52f5)
C            1.24041019611602       -0.58596601169917       -0.07838712008350
C            2.60017891478657        0.07498462640006        0.09739737342422
C            2.51997826915926        1.58637954094166       -0.05905094218870
N            3.16907019944672       -0.27505171999626        1.42134775198700
C            2.48993661887624        0.05135156843929        2.56064004627096
N            1.91583599865085        0.33265269603724        3.52898845447591
C            4.54790454968262       -0.81309017650398        1.51286309188205
C            5.48967111038221        0.24380816584344        2.07061872960558
C            4.55975659335259       -2.08248956527761        2.35271420236068
H            0.80975555896088       -0.37119576479818       -1.05710479689175
H            0.54457354456764       -0.22566008583364        0.67905778305667
H            1.31225963499955       -1.66808051164702        0.03425509423303
H            3.28639740585839       -0.32508816143847       -0.66559704734461
H            1.87382042185182        2.01124256817981        0.70870370071874
H            2.11546602218868        1.87017487192715       -1.03128116663717
H            3.50156113848502        2.04800794462418        0.04962186366393
H            4.86455253985904       -1.06696090713429        0.48894793350863
H            5.17435278016388        0.53969812136047        3.07088952200440
H            5.48972818197343        1.14054829404993        1.45068983666793
H            6.51408254852432       -0.12417352435925        2.13798389541590
H            4.23236557655997       -1.86594181646556        3.36942854297285
H            5.55679249694795       -2.52103256613932        2.40902189473523
H            3.87934969860661       -2.83002758651067        1.94392135616099
