12
 energy: -1.679141616453 gnorm: 0.000415122599 xtb: 6.5.0 (97a52f5)
C            0.89015138235328       -0.05488919476739       -0.00944870788356
C            2.41420112096501       -0.01807702294624        0.01881304195613
C            2.95375452174453        1.39588978448371       -0.16657484903737
O            2.92221107635449       -0.61157119258293        1.21200687458466
H            0.49604809255381        0.33222954739706       -0.94982672272069
H            0.47950294898346        0.55045768570099        0.79799681640098
H            0.52229243476652       -1.07241898505582        0.12282789006207
H            2.80138894432042       -0.65719269805450       -0.79450302333682
H            2.61494193791771        2.04187147302715        0.64277018500159
H            2.61629434423296        1.83476120854135       -1.10624075976071
H            4.04372385794398        1.40194165011842       -0.15745487187491
H            2.61659933786382       -0.09282225586180        1.98858412660863
