114
 energy: -21.092274488640 gnorm: 0.000539188135 xtb: 6.5.0 (97a52f5)
C           -0.18558635483236        2.52661050929321       -1.23760579145773
C            1.05471376621009        2.06459443618497       -0.49350318514384
C            0.88289877525618        2.22318069197508        1.00831100069048
Si           1.56955583607419        0.27267916637177       -0.91372532921893
C            0.80745731544727       -0.86278458073266        0.23400942670047
C            0.62419131837920       -1.70107987762975        1.09577581489165
C            0.57314855233697       -2.65507023981709        2.12343015878358
C           -0.61172988215927       -3.38496131614817        2.39789568094065
C           -1.79076634165559       -3.15914923045470        1.68218256291548
C           -2.95076919402018       -3.88328114206412        1.93651370229244
C           -4.15443584555063       -3.65885284247229        1.21423961576449
C           -5.26913202410248       -4.38711790321455        1.48090850341195
C           -5.25564346800608       -5.38094778667024        2.47918984600002
C           -4.12822318549674       -5.62707439348435        3.19488820387517
C           -2.93831606746156       -4.88834888209081        2.95158609433268
C           -1.76822922846948       -5.11679012504758        3.66785043368663
C           -0.60166079537002       -4.38818179198241        3.42067291175437
C            0.59109325336905       -4.63189863686665        4.14769665154479
C            0.67277524178684       -5.64514091748374        5.11542337159107
C            0.95383096486289       -6.49002302322756        5.94434396542263
Si           2.04370392752015       -7.61658451456442        6.80378418195189
C            3.79289752347112       -7.10122935025967        6.23482128152126
C            4.93442873985435       -7.75932605807270        6.98674418878167
C            3.93248345207005       -7.25097965028794        4.72996511938565
C            1.79879006644441       -7.32038632154797        8.66922005415781
C            2.32611713111284       -8.44838399326368        9.53712216125228
C            2.35965012390044       -5.96600665039569        9.06475852166547
C            1.58189341612091       -9.40947073624868        6.33889130355783
C            1.00030446041904       -9.46964553236573        4.93686779962721
C            2.72253866162313      -10.39232314609537        6.52554555373355
C            1.75510576768023       -3.89239767034766        3.88668929789195
N            2.86788018653549       -4.16801498040071        4.61691969286349
C            3.89756469292585       -3.44070907651320        4.29320750134333
C            3.88989977480607       -2.45844521883908        3.27759690929096
N            2.85192868181887       -2.16109454766318        2.55088544793604
C            1.74660221449145       -2.88958259218930        2.85685822916191
C            5.24641925828257       -1.77737113994160        3.11302815115309
C            6.24554169499555       -2.90024157901267        2.84993559835063
C            7.08047846244429       -3.02908095803128        1.75665684821936
C            7.92350302181881       -4.11981105020419        1.67365522624976
C            7.93572852585118       -5.07516335384009        2.67402419812404
C            7.10381079220791       -4.95314466187708        3.76958662092092
C            6.25513611159859       -3.86628891345982        3.85788645807438
C            5.25907492711087       -3.56744812344832        4.97450155431595
C            5.59960830254241       -2.17237139830516        5.49023728913369
C            5.89151169019956       -1.81697360978613        6.79317307247135
C            6.17716934884746       -0.49816300544439        7.08745386902896
C            6.17085982555535        0.46052306725456        6.09022488906876
C            5.87881596543973        0.11290984817974        4.78585267321782
C            5.59350467682828       -1.20489404115290        4.48392617367347
C            1.04982280805495       -0.14656100068734       -2.70429327056393
C            1.94143886286488       -1.18342084369360       -3.36324488833171
C           -0.40735541915544       -0.57624207566844       -2.73868181163398
C            3.46534751216313        0.10444351584516       -0.72763792918532
C            4.01789580195337        0.95519662184768        0.40234675067409
C            3.86579514850855       -1.35171941254892       -0.55089178150248
H           -0.40672872715969        3.57468243549415       -1.02664622957927
H           -1.05577290960795        1.94533850760328       -0.93073497565389
H           -0.07667093158362        2.42477267582867       -2.31814146966013
H            1.92011049428123        2.64852453919660       -0.83774470247715
H            0.03431356582242        1.63385687663481        1.35891668378438
H            0.69651939186784        3.26337442912649        1.28228657074710
H            1.75946980103361        1.88363858118572        1.56023045753616
H           -1.80137537541984       -2.40732033575532        0.91428938059175
H           -4.16824748620543       -2.89989549265853        0.45095694305576
H           -6.17539361916187       -4.20677955565058        0.92596757244598
H           -6.15080869646823       -5.94922509927994        2.67294007581321
H           -4.12096988148324       -6.38700302100123        3.95730314212975
H           -1.76099322637614       -5.87342270002251        4.43104077593806
H            3.76871552446262       -6.02982574074724        6.48369814282484
H            4.96677606336807       -8.83073348254855        6.79253008674243
H            4.84526979591281       -7.62064788961517        8.06423121371894
H            5.89775454196604       -7.34667464401771        6.68082441567556
H            3.95094332676167       -8.30244145724867        4.44304831977216
H            4.85557573271946       -6.79668427736783        4.36637274695325
H            3.10224200861710       -6.77685208914263        4.20345881033164
H            0.70099030458562       -7.29352506907442        8.73972954896860
H            3.40637083195394       -8.54943463476057        9.43590577588943
H            1.87845562791348       -9.40659331133120        9.26866945929512
H            2.11374992735860       -8.26889583264023       10.59276529163980
H            3.44834733480631       -5.96249377544711        9.00312299670598
H            2.08960926584669       -5.70450787169429       10.08976585943761
H            1.99230141066774       -5.17546786874923        8.40728200441560
H            0.78837814391809       -9.62618102678712        7.06934073925523
H            1.75394139111079       -9.20890967772906        4.19324502834205
H            0.16915450038260       -8.77218672478323        4.81690828075603
H            0.63536653931113      -10.47037350319423        4.69777773634340
H            3.49943702306681      -10.22895461370629        5.77846306156217
H            2.38161981474397      -11.42356514668722        6.41497112659874
H            3.18284035762157      -10.29700570163881        7.50984453858134
H            5.24033394336232       -1.01768355369327        2.32244809218510
H            7.06435896498209       -2.28076598640464        0.98327519607304
H            8.57665515745989       -4.22663048636644        0.82289476678910
H            8.59842888848108       -5.92184239635263        2.59807404092039
H            7.10918016712530       -5.69022494523797        4.55380960287899
H            5.26290328327392       -4.32652265343285        5.76597142284815
H            5.89136173575168       -2.56933762280305        7.56286587631368
H            6.40563665830167       -0.21441150844613        8.10190772909494
H            6.39436846719258        1.48676852070056        6.33248609166548
H            5.86875109993742        0.85249932736558        4.00393297792513
H            1.17206794516531        0.81497313812758       -3.22255117278556
H            1.86098104517760       -2.14111063479360       -2.84763615107447
H            2.99002461820838       -0.88248071386100       -3.35761332301091
H            1.65295396601103       -1.35142594976481       -4.40268170433637
H           -0.53858451828415       -1.52155067548867       -2.20977899630193
H           -0.75782205015037       -0.72098704635435       -3.76246343637971
H           -1.06118052405321        0.15390637667331       -2.26145095351195
H            3.84006697092674        0.48474825148718       -1.68846256933024
H            3.61605296597398        0.62325850336204        1.36049307802951
H            3.76978707799107        2.01029718293709        0.28036205002574
H            5.10527642700987        0.87826308142646        0.46170324913644
H            3.47529001405908       -1.74260142448907        0.38904038336879
H            4.95086737510338       -1.46777128084647       -0.52769328818494
H            3.48018968969281       -1.98662497071334       -1.34780294547618
