112
 energy: -20.859952217726 gnorm: 0.000689401486 xtb: 6.5.0 (97a52f5)
C            0.74143644152726        0.38362949453203        1.57585304521470
C            1.46150475717351       -0.49973836868587        0.57024577603136
C            2.73434810325320        0.16303153449300        0.07425701834346
Si           1.75052216016517       -2.24038325542705        1.30534879690370
C            2.04103650746549       -2.10835164079143        3.06162453107069
C            1.95626695167150       -2.17230175313859        4.27295649236019
C            1.82300865458286       -2.37476836822767        5.65487046433248
C            1.84623803032654       -1.28553483946371        6.56602402489882
C            2.06538024397619        0.02334443851753        6.13220258498408
C            2.06324163633911        1.09703816225039        7.01736260355997
C            2.28225993830682        2.43227281097891        6.58372985332656
C            2.26877940602428        3.46006920187337        7.47125636016364
C            2.03730254894144        3.22308996382448        8.83984989011249
C            1.82378946394115        1.96236813000326        9.29738607031267
C            1.82910751997784        0.85664644328062        8.40512758431957
C            1.60909450836901       -0.44612432283920        8.84248845674039
C            1.61235120472816       -1.52714221993514        7.95884737246203
C            1.36650435792889       -2.85276974946745        8.40634685673614
C            1.04840722802832       -3.12462560295356        9.74594559483297
C            0.74352067046117       -3.47508850012010       10.86992832408422
Si           0.01697076595737       -4.26385821106377       12.29858762652764
C            1.41046953734845       -5.23182803019640       13.17223500818860
C            1.03596624711430       -5.81091158698240       14.52404471137294
C            1.97920298386793       -6.27920449335280       12.23332071948217
C           -0.66853977328842       -2.86491530599448       13.39550290666584
C           -1.70155424688479       -3.33046893176853       14.40542169316934
C            0.46852470293156       -2.09133746229666       14.03790632350225
C           -1.42143663987703       -5.36152666524094       11.68110821220170
C           -1.14914706097745       -5.89919236682737       10.28615900738216
C           -1.79552772773707       -6.46852429563475       12.64898682430703
C            1.37402643259246       -3.92050303025125        7.50014102344991
N            1.14263922343953       -5.17292701223440        7.96244279999058
C            1.08480814329770       -6.13796380709197        7.06879586069261
C            0.84460629639908       -7.48457766272681        7.62612121237634
C            1.42781853622813       -7.79899730914367        8.85320159909507
C            1.12823760037435       -8.96684571101929        9.51441594908978
C            0.21991030951818       -9.85251771920402        8.96931271836733
C           -0.36489333699080       -9.57175845538135        7.75583868885146
C           -0.05757027883678       -8.40744368938785        7.06513440415116
C           -0.66248515877320       -8.19783610091418        5.73077711205658
O           -1.85948666610863       -8.31248671255012        5.54913501052235
C            0.27253276302027       -7.96452809264993        4.60704275069249
C            0.19784886466663       -8.80190743318104        3.50237552382792
C            1.08250834381439       -8.67794918032150        2.45592225815306
C            2.06164142612884       -7.70540915710322        2.49751331834944
C            2.13517883869714       -6.85223390483208        3.57351568439683
C            1.24997185940299       -6.95208040739089        4.64658787992675
C            1.28763384439012       -5.89097097887183        5.67270508994836
N            1.56440113825559       -4.68950039363238        5.21180268286508
C            1.59799694092352       -3.67844613717120        6.11270557836039
C            0.18070642444385       -3.30442885383967        1.05748540602181
C            0.14953171896831       -4.45212009949750        2.05422930266093
C           -1.10050808876499       -2.49300645725530        1.12644267554268
C            3.24031803083905       -3.06843897452587        0.44140147940138
C            4.53710342389140       -2.61100505462956        1.08756104688146
C            3.15132915632927       -4.58314372514016        0.40700035214692
H            0.46394511616568        1.34442955985038        1.13836157090517
H            1.38417807729315        0.58700121533426        2.43354248644646
H           -0.16567528615543       -0.08468065615486        1.95770077768380
H            0.80530845981516       -0.70708753628663       -0.28674893448965
H            3.41509632325922        0.35495732112942        0.90418217773284
H            2.52233122434614        1.12384135373014       -0.39846657339066
H            3.25929448442371       -0.45379145889759       -0.65603215317066
H            2.23738062650089        0.20733602820949        5.08756921582394
H            2.45859633694202        2.61693196817591        5.53801980272139
H            2.43594190683905        4.46853089041239        7.12966406078984
H            2.02962317522356        4.05306405058235        9.52735505208329
H            1.64631610194528        1.78427225204393       10.34402223135817
H            1.42894755498258       -0.62385159330683        9.88690131889519
H            2.15696001145402       -4.43653859270352       13.31656501869780
H            0.26573071857778       -6.57459217251243       14.42516125285498
H            0.65925675758613       -5.04619729107787       15.20324026940179
H            1.89610306076415       -6.28144426014368       15.00381938216971
H            1.25878349641441       -7.07948232531265       12.06363467151403
H            2.88417170158251       -6.73450347999364       12.64003137113938
H            2.22776602244222       -5.84599517856234       11.26297367146458
H           -1.16092882742776       -2.22853550233451       12.64483163008396
H           -1.26322925760098       -4.01982945271950       15.12628115912260
H           -2.53523949962098       -3.84269198380679       13.92297354947228
H           -2.11224888711419       -2.48999176606439       14.96785562239974
H            0.98093530696468       -2.70097959101014       14.78276554461670
H            0.10683888859942       -1.19336081762294       14.54247942515810
H            1.21027159665029       -1.78562619229825       13.29746257756864
H           -2.24078264579294       -4.62946808054584       11.62913315143919
H           -0.31033058774856       -6.59335481291471       10.30097463052343
H           -0.89819746073626       -5.10241197576711        9.58405570825511
H           -2.01042613119589       -6.43709098491912        9.88616934766015
H           -1.01902673041552       -7.23291431194312       12.68042442894156
H           -2.72080100853152       -6.96327219100607       12.34800242851547
H           -1.93382524100104       -6.09196134836814       13.66315931463145
H            2.11367444199479       -7.09151880329184        9.28568301781782
H            1.59204184710181       -9.18558240410506       10.46235246568882
H           -0.02501680330216      -10.76450242400020        9.48872583622272
H           -1.06797471459670      -10.25832841630468        7.31567639105872
H           -0.56731213672791       -9.55920623333014        3.48411645583097
H            1.01370936863477       -9.33989384675577        1.60823269366716
H            2.75815154855572       -7.60726127235680        1.68098477504580
H            2.87438332923179       -6.06993034106350        3.59613498662227
H            0.30904431868832       -3.69420842604282        0.03795472516586
H            0.05966597106058       -4.07576599180040        3.07412914905220
H            1.05763386562051       -5.05092103484388        2.01341347920946
H           -0.69615462569338       -5.11827202802806        1.87519492899899
H           -1.22986803886172       -2.06700902043502        2.12186872326759
H           -1.97447246989175       -3.11501113594034        0.92476113176686
H           -1.10618259486220       -1.67444957529570        0.40576586306512
H            3.17197892891136       -2.68016342942543       -0.58448801402898
H            4.60069255643931       -2.97693858307901        2.11343105899027
H            4.61368138521189       -1.52439407009565        1.12727892393603
H            5.40789864251312       -2.98937144449734        0.54900505398045
H            3.19731073630563       -4.98963582411644        1.41715598412201
H            3.98157966654951       -5.01703428294127       -0.15326149058558
H            2.22577451822039       -4.92856065126190       -0.05526355422529
