128
 energy: -24.110509616561 gnorm: 0.000638305771 xtb: 6.5.0 (97a52f5)
C            1.31521992368002        1.50033116996988        1.65043492280982
C            2.82628402465982        1.44435950522053        1.50272268411985
C            3.21546663478908        1.10349460214222        0.07444021922556
Si           3.60163810537352        3.08004915023451        2.11316577611364
C            2.54330438205029        4.39178443794447        1.50502445074669
C            2.06216154512638        5.07888131317427        0.57772498512331
C            2.22495921678611        5.19376463708114       -0.83512104763086
C            3.22912095311827        6.06707176549993       -1.34277190935060
N            3.92435833939865        6.80844138383457       -0.45610668123204
C            4.95565279497493        7.44260286059843       -0.98448620547992
C            5.29189800494986        7.39245804492333       -2.33523624347895
N            4.60938537872660        6.71765031420654       -3.24166656281919
C            3.56297481749579        6.03254137467166       -2.72969969930595
C            2.86110418797066        5.15936314374706       -3.58493387396589
C            3.27861913571112        5.02504498720247       -4.91353146635567
C            3.78737310535225        4.68867584555436       -5.96608782547206
Si           4.84923772740496        3.54305637462830       -6.83419907407206
C            4.07232232383353        1.82554725574224       -6.51857582540299
C            4.69366960849363        0.69699516245343       -7.31991603338761
C            4.02508771238103        1.51720317784537       -5.03133536841375
C            4.83306238263893        4.02036783119103       -8.67789887572297
C            5.99467033920077        3.43943493465221       -9.46303441971318
C            3.48637209638735        3.69201704225117       -9.29623035602211
C            6.60481943070042        3.73855847036625       -6.10336809192949
C            6.55670551416687        4.19310123802115       -4.65248439364927
C            7.46583593680460        2.50275678761050       -6.28371964873087
C            1.89359536214298        4.26043485539796       -3.08975931680453
N            1.38283125504049        3.35134945740438       -3.94832117909004
C            0.57709589905311        2.47944929075483       -3.37349547147796
C            0.26121281416630        2.48351460700239       -2.01730001163550
N            0.73742854316425        3.36092522700905       -1.15064284390144
C            1.57250629821237        4.26767782182020       -1.69869919571624
C           -0.64481404779765        1.31930235526339       -1.62032533359094
C            0.09912257419099        0.05615662152717       -2.04876641140425
C            0.45619583834596       -1.01342900355609       -1.25031868253672
C            1.15131938659461       -2.07032329686644       -1.80402359204894
C            1.48492493096321       -2.06473557239324       -3.14627220008778
C            1.12364922710618       -1.00413636876255       -3.95328212898988
C            0.42837064410407        0.05677290230322       -3.40575015458104
C           -0.04885635563207        1.31253936436354       -4.12942723668189
C           -1.55052695789570        1.40884621109687       -3.87876078053419
C           -2.54920907946876        1.48516988692656       -4.83039229641800
C           -3.86645453972654        1.56675905207815       -4.42397200192591
C           -4.18618468161283        1.57293189443291       -3.07829672005052
C           -3.19314262021194        1.49702217508451       -2.12161963808092
C           -1.87297044693119        1.41474983185775       -2.52075482137697
C            6.61382222948381        8.08926692284331       -2.64343024044669
C            7.64255492797289        7.40022468589955       -1.74968108637653
C            8.78358654370045        6.73471610828347       -2.15456178769451
C            9.58602011339031        6.12965597194365       -1.20732629039940
C            9.25356688859398        6.18606676948709        0.13420905649271
C            8.11337201121250        6.84708900759990        0.54626788874165
C            7.30543067373357        7.45442511434794       -0.39545448949848
C            5.98924232553219        8.18513560553564       -0.14249403665266
C            6.13449737795298        9.56793495099956       -0.76965675139539
C            5.96528425546221       10.78739382433293       -0.14264280190249
C            6.13532649102114       11.95061539746844       -0.86721949723356
C            6.47115309006881       11.89918307500004       -2.20797996052208
C            6.64113424191652       10.68385628878294       -2.84141260868842
C            6.47323653569323        9.51601003196533       -2.12246992717637
C            3.71012212901138        3.10825983948974        4.02003973130903
C            3.73345880627219        4.54489438669493        4.51375385775862
C            2.61706955732787        2.30792063508473        4.70389418111074
C            5.35658179545661        3.25480519433245        1.36787461450113
C            5.31089286284303        3.80073778650300       -0.04972780686577
C            6.28949472434794        4.08681085532196        2.22952192764383
H            0.85368092112238        0.54228322539124        1.40779213214235
H            0.89760966591206        2.24919466396986        0.97613152917648
H            1.00882107841451        1.76983841380940        2.66046316192786
H            3.24824978647683        0.69605160850959        2.18804247996596
H            2.83028029716065        1.85477384560101       -0.61611655635317
H            2.79931807596328        0.14243593815685       -0.23204262824280
H            4.29712424976577        1.04879500935611       -0.05330932106313
H            3.04650344600625        1.99811565033437       -6.87736029881145
H            5.72371733487837        0.51859447118333       -7.01379607995287
H            4.69844499589273        0.91235108158264       -8.38847647804369
H            4.14767336361462       -0.23714670857080       -7.17506872492749
H            5.02728595886423        1.35591868360183       -4.63457251231607
H            3.44526751269613        0.61533944936993       -4.82804144383263
H            3.57385051660070        2.33429913598478       -4.46635477974703
H            4.94855038441503        5.11296650988329       -8.61735862141104
H            5.94787298208680        2.35104265694998       -9.48527036433722
H            6.95535025801639        3.71966536400781       -9.02835847897304
H            5.98640096114967        3.78663879648087      -10.49790677888286
H            3.34178193914199        2.61327891545366       -9.36276909391559
H            3.40027788362654        4.09673167113264      -10.30647109863192
H            2.66594663437144        4.09666570499121       -8.70034243046103
H            7.00572426286357        4.55533880721487       -6.72153787751473
H            6.08531358086555        3.43748685791111       -4.02369381420822
H            5.98432843032691        5.11497497069559       -4.53690997772665
H            7.55740726090923        4.37274922528538       -4.25559447166438
H            7.11662818233307        1.69142451048705       -5.64505582461532
H            8.50536824702935        2.69933303866519       -6.01454163894569
H            7.45050760905190        2.14550384976270       -7.31423873205998
H           -0.89693628297327        1.32959567157475       -0.55286048017215
H            0.18532591461916       -1.01556061771116       -0.20914960412362
H            1.43307243032083       -2.90679824192390       -1.18541057804558
H            2.02824116748663       -2.89526563847913       -3.56656226096845
H            1.37587343619639       -0.99198222969912       -4.99950029231050
H            0.21163768960035        1.31999226925637       -5.19535692911654
H           -2.29019510241817        1.48117187889932       -5.87497946757206
H           -4.65018379568508        1.62669843136876       -5.16135990565634
H           -5.21799206862730        1.63690501267456       -2.77348702273414
H           -3.43279563310518        1.50040563119398       -1.07243281560910
H            6.87017209271320        8.04318498819810       -3.70931810746887
H            9.03070058070556        6.68980398018949       -3.20110994652246
H           10.47762779421892        5.60904426666196       -1.51662482728475
H            9.88765569266123        5.70889868328319        0.86356995848367
H            7.84476928297699        6.89174552570288        1.58743642626040
H            5.71357941777463        8.21946685467134        0.91902945351465
H            5.70083523199344       10.81769169472848        0.90013009815727
H            6.00342804334336       12.90515967457475       -0.38440681780495
H            6.59940118452026       12.81376582476664       -2.76356696405598
H            6.89886246711692       10.63454629787251       -3.88516501263419
H            4.67987274428812        2.62783316132878        4.21176939355845
H            2.77969705316295        5.03336745627621        4.30899634828195
H            4.50811020643099        5.13377061444512        4.02220200001826
H            3.90479024222756        4.59593243847411        5.59062899658975
H            1.64049366127148        2.75669062845194        4.51956572146609
H            2.76110994596680        2.28389761854362        5.78571630075287
H            2.58765928990337        1.27574857964112        4.35208856920684
H            5.70561976830543        2.21245259546730        1.35589417650382
H            5.00696661929525        4.84669871193201       -0.03710465272733
H            4.59979207514424        3.26576538647493       -0.67869819887476
H            6.28897908043202        3.75490944643535       -0.53212034502070
H            5.94130457071473        5.11899753713522        2.28112359790972
H            7.29866091348021        4.10668682248678        1.81383666771806
H            6.36025321883599        3.70362112171284        3.24801184899324
