115
 energy: -25.027801186146 gnorm: 0.000661575655 xtb: 6.5.0 (97a52f5)
C            1.36270489746278        0.29793082943974       -0.56845979061304
C            0.93454687274425        1.43485951750158       -1.18557765168981
C            1.85079470861184        2.56789774689384       -1.45999171549374
C            1.49365823112004        3.87006359194032       -1.11122175014522
C            2.34620105095857        4.92424936600464       -1.35433893348639
C            3.57217503501148        4.70137709269818       -1.94843969989457
C            3.93970884977290        3.42065001082937       -2.30685737378878
C            3.08624864091330        2.36560820215231       -2.07560640186904
C           -0.45742017621406        1.53233326249796       -1.67075414601224
C           -0.76028394498814        2.32182103844643       -2.77951628018532
C           -2.05034501889156        2.41982071421976       -3.25110689186963
C           -3.06930981784395        1.73364929746169       -2.62193027144583
C           -2.79300311977354        0.95276278596735       -1.51746550002644
C           -1.50274075549848        0.85280668824504       -1.04429879245160
C            2.68083068248151        0.07007383522270        0.00508485399490
C            3.23685497663542       -1.21285592678022       -0.00127847452404
C            4.52057709464241       -1.42943432245368        0.43833240132719
C            5.30857298552085       -0.37677342752379        0.91160357958596
C            6.74133483564283       -0.56178311615992        1.21488530060992
C            7.48915878215268       -1.53199624967440        0.54299065523209
C            8.85445862595885       -1.58432471009135        0.67112691147136
C            9.53660595747766       -0.65389643224208        1.45583405830592
C           10.99525103068468       -0.54031863464163        1.41489540849577
N           11.73150178444227       -0.11035477319644        2.42953329164525
C           13.00212710428325       -0.04693957242005        1.97326289555036
C           14.18648116056940        0.35017775660026        2.69054200454827
C           14.11984534630302        0.69150306789412        4.04281115685048
C           15.24957522120737        1.05539513677908        4.72540290952049
C           16.47210254380301        1.08497626639855        4.06986591190040
C           16.55791182405661        0.75459338727572        2.74018955935995
C           15.42306330365420        0.37958287838338        2.00770135930621
C           15.48032178621697        0.03993288584924        0.58129720214830
C           16.67580527509534        0.09874530556528       -0.14825934263446
C           16.70959472617415       -0.18701841941324       -1.48958056767417
C           15.54802743195051       -0.53766369302803       -2.16078326338266
C           14.36345982806277       -0.61093049920798       -1.47966186059870
C           14.30288619384416       -0.34116896608195       -0.10858925608697
C           13.06538131352169       -0.40775597068339        0.62468791429292
N           11.77217239057193       -0.74070095259889        0.25977718465496
C           11.26669390092171       -1.18072178924149       -1.01920633892157
C           11.68086141798645       -2.39216642205283       -1.55776339412930
C           11.08916197936478       -2.88440683806697       -2.69998909283321
C           10.05259744710093       -2.19730877660093       -3.29494983237286
C            9.59663697032405       -0.98985465006279       -2.76440102589453
C            8.39732732162747       -0.32186015111532       -3.31799081386465
C            7.31057169264358       -1.07598496567528       -3.76029925379613
C            6.18927380770524       -0.47131712738552       -4.27369450515295
C            6.10086828938289        0.91962547036501       -4.37818105312151
C            4.90024906114141        1.50774595920808       -4.95097070654656
C            4.75028286302675        2.74966747072298       -5.48898906912124
C            5.89971585169542        3.66854664788201       -5.67618478194091
C            5.92086104696055        4.91585170984328       -5.05347114723762
C            6.98464936219067        5.77184240504823       -5.23060849737772
C            8.04315638566518        5.40351253042822       -6.03709882489433
C            8.03400284964818        4.17671013722082       -6.67069309903876
C            6.97206543615476        3.31738618620268       -6.49619624814129
C            3.42687716629855        3.19424283316199       -5.97624486952161
C            3.34139238874377        4.14497593504348       -6.99362091076176
C            2.12100632841301        4.56863032309950       -7.47083785560494
C            0.95562937216656        4.05181510633973       -6.94301526096361
C            1.01638484609307        3.11481699475690       -5.93199601015658
C            2.23582855693478        2.69309931590549       -5.44846203073190
C            7.17732503046698        1.67287570783333       -3.89850215689333
C            8.29942302543836        1.06739900232114       -3.38431710425876
C           10.24506399216296       -0.48005150943751       -1.64388718025632
C            8.78729410756302        0.25913769754339        2.19695973036243
C            7.41901176978629        0.30402179779099        2.07919090386083
C            4.72822913756151        0.89167033380069        0.98090624543879
C            3.44338318717802        1.10674987924376        0.55039393510430
H            0.68498962805531       -0.53722306979315       -0.53851240181091
H            0.54019806118099        4.03968772270187       -0.64102676522699
H            2.05713756628811        5.92451691177704       -1.07578255026548
H            4.24227348594182        5.52619324994286       -2.12755842824421
H            4.89586670543544        3.24292509186120       -2.76926426355566
H            3.37391237506350        1.36633177860026       -2.35393805796238
H            0.03584668895923        2.85779391006389       -3.26525888894514
H           -2.26497274307663        3.03433449947744       -4.11027894469962
H           -4.07942519015782        1.81023619238730       -2.99017017956052
H           -3.58986976569832        0.42179160808783       -1.02254639698554
H           -1.29887959591867        0.26078662976376       -0.16908182905698
H            2.65593409285260       -2.02994406284486       -0.39374226441707
H            4.93308580130565       -2.42269362045943        0.40602170600830
H            6.99493275205690       -2.20415386115527       -0.13634795845375
H            9.41902582044832       -2.31394258918021        0.11773828659740
H           13.16407254832037        0.65951311624725        4.53648781420658
H           15.19074805757665        1.31678787407554        5.76936685125856
H           17.36009083105936        1.37042960647016        4.61013839948678
H           17.51824229307305        0.78598754540574        2.25899201631152
H           17.58821612664109        0.37895914795589        0.34543765462250
H           17.64175374139736       -0.13211219592814       -2.02812272379736
H           15.57856163557699       -0.74942856971585       -3.21718223898806
H           13.46097072227486       -0.86572456336940       -2.00247164381703
H           12.45519995402447       -2.94666392205598       -1.05637051306826
H           11.42231143280556       -3.82125480782958       -3.11577543017693
H            9.57860812232264       -2.59567882754951       -4.17535660943014
H            7.35337907992119       -2.14867887365040       -3.68256858154872
H            5.36400203468061       -1.07269532814517       -4.61512598571277
H            4.04063933103653        0.86147996464439       -4.97132579701189
H            5.09152512174431        5.19939823549991       -4.42938168479090
H            6.99039546204057        6.73118923251010       -4.73936000620480
H            8.87547445562413        6.07443588549969       -6.17429377183306
H            8.85942824741069        3.89065453147302       -7.30194150181189
H            6.95967203164637        2.35958333725468       -6.98744834196225
H            4.24951308998711        4.54410954293038       -7.41120972873025
H            2.07636334996143        5.30214518403127       -8.25935923697732
H           -0.00000918878766        4.38025772274733       -7.31812709689946
H            0.10518402220000        2.71016085644697       -5.52391548394422
H            2.27006734920787        1.98537081822958       -4.63937989666571
H            7.12608743411084        2.74570509071811       -3.93278608874418
H            9.12486879996581        1.66624320760441       -3.04017962182235
H            9.89352921422631        0.43036560147114       -1.19471527224966
H            9.30658305864424        0.96480030658317        2.82223014555500
H            6.86056427742953        1.03358713066772        2.63921073712253
H            5.31563851487579        1.72304485169678        1.32912614630166
H            3.02079092156117        2.09462172694056        0.60375006775296
