112
 energy: -20.645956559731 gnorm: 0.000506022144 xtb: 6.5.0 (97a52f5)
C            5.22892503037399       -1.00316854385193        3.39631786769872
C            5.53305025974929       -2.23331083397854        2.56256469282246
C            4.94697847458522       -3.48613751347973        3.19077360340766
Si           4.94608391218000       -2.09392848109514        0.74925453780062
C            3.25577504374687       -2.65470909844310        0.59831708749843
C            2.08819577818181       -2.97316405868203        0.30311066299865
C            0.96178609659697       -3.11504631629360       -0.52432881690136
C           -0.27109333532396       -3.53886104917931        0.04590655277045
N           -0.30708738966485       -3.81098163656916        1.36530629897493
C           -1.49374147474824       -4.18497053035903        1.79685413314204
C           -2.62296522732640       -4.30100811080912        0.98348040355378
N           -2.62936683469475       -4.04256497279222       -0.30610639896692
C           -1.42797170723246       -3.65054474100752       -0.78316752504432
C           -1.32920421154077       -3.33218049291190       -2.15445590961316
C           -2.49399728329948       -3.41978333084131       -2.92593051726353
C           -3.59627652026019       -3.52535415056586       -3.42885272382859
Si          -5.36245754823807       -3.77612146177433       -3.52391547434151
C           -6.12133214634342       -2.48109511268106       -2.34266145481453
C           -7.63268579380563       -2.36588959968063       -2.41189507121654
C           -5.62639468460264       -2.69960746557164       -0.92367708943516
C           -5.88296380890133       -3.48795189389072       -5.33316322900472
C           -7.24819945283733       -4.05912368810171       -5.67019267872288
C           -5.75983450053352       -2.01748258852216       -5.68901638834815
C           -5.71716979044461       -5.58177008773708       -3.01113687680706
C           -4.66341939136548       -6.08670502341373       -2.03935391943010
C           -7.12428121558742       -5.79329143117228       -2.48528166863136
C           -0.11092421077737       -2.92602054730624       -2.73162902778257
N           -0.09492450425776       -2.64827299131420       -4.04558452907279
C            1.09971548667007       -2.28092836341875       -4.54693823264132
C            1.19855493553625       -1.98530279208826       -5.91734515190264
C            2.38933097532380       -1.61648312055466       -6.48039859224304
C            3.53315048821191       -1.53116549081411       -5.69461338861123
C            3.47100332694448       -1.81030576082574       -4.35640692839885
C            2.26399971125485       -2.18606613483936       -3.74026328973242
N            2.24333058456579       -2.44331301177017       -2.41455128943638
C            1.05612560456002       -2.81784883379223       -1.91137578515072
C           -3.86307501099528       -4.74998708357253        1.75291723008681
C           -4.04567744624328       -3.72983981339772        2.87181540788408
C           -5.16353025934593       -2.95552520889923        3.11609545288971
C           -5.15273041355529       -2.06636803986148        4.17255155863211
C           -4.03526829303054       -1.94912783604120        4.97930054269243
C           -2.91398969974497       -2.71911169924937        4.74012308484022
C           -2.91758712745889       -3.61158741209390        3.68552961553110
C           -1.77837978331221       -4.53254067543851        3.25569198138782
C           -2.35271237520363       -5.94669776531733        3.24038327927495
C           -1.86808796921594       -7.04936436648801        3.91709586687574
C           -2.50965306528319       -8.26448279577587        3.77872933941492
C           -3.62610665126393       -8.38081152515672        2.97046429131334
C           -4.11618711182086       -7.28313326113247        2.29078619548774
C           -3.48033466289403       -6.06403505835375        2.42598808883837
C            4.95048930442179       -0.28389539129389        0.13997294058982
C            4.93157185517422       -0.21324871525096       -1.37617676774083
C            3.77671136606220        0.48840602248339        0.72046824017623
C            6.05570226949035       -3.15085982879926       -0.39630750151302
C            6.91526981687489       -4.17346062023229        0.32529571177158
C            5.19464167692560       -3.80444511405607       -1.46384968609654
H            5.63624130894323       -1.09695428419962        4.40469565422083
H            4.15188769932620       -0.86417321837468        3.49535618313736
H            5.65008094728799       -0.09934608010157        2.95366228832565
H            6.62207390123423       -2.33650596727892        2.46226623848918
H            3.86298228668306       -3.39718455750061        3.27732659997835
H            5.34526435257667       -3.65655819353740        4.19275360472477
H            5.15000153561583       -4.37496023036892        2.59291351911613
H           -5.67205196869425       -1.55800808547916       -2.73856383634514
H           -8.11270065676280       -3.28085348367290       -2.06706267533481
H           -7.97942293455635       -2.17161557984399       -3.42680271141835
H           -7.99566331530672       -1.55330126135702       -1.77979837457566
H           -6.06433736987390       -3.60121733608142       -0.49621173018120
H           -5.89491255167473       -1.86635754251398       -0.27162735501447
H           -4.54143664043201       -2.81226525870404       -0.89105072593740
H           -5.11066148906067       -4.05765623687690       -5.87146997114150
H           -8.03337590587979       -3.56188926785907       -5.10156855554559
H           -7.30541387227576       -5.12565481575943       -5.44742585405165
H           -7.48153189359431       -3.92920351360194       -6.72858885215067
H           -6.50845042294070       -1.42582381301648       -5.16120963962674
H           -5.90459265215731       -1.85074928703361       -6.75813918520818
H           -4.77857625322736       -1.62338428725046       -5.41729794711145
H           -5.60336922442221       -6.10737535621985       -3.97067784882013
H           -4.69900492963000       -5.52648366798266       -1.10592151910064
H           -3.65564984392967       -5.97475963125931       -2.44268749508452
H           -4.81191517795297       -7.14047841769354       -1.79724090418860
H           -7.24803317925312       -5.32196352503996       -1.51030173498504
H           -7.34651138275663       -6.85467699919937       -2.35961280884586
H           -7.87469880305394       -5.37338945388327       -3.15630431713198
H            0.30815701129104       -2.05806183311550       -6.51708835971692
H            2.44299087439757       -1.39448370652947       -7.53364323659964
H            4.47093013021370       -1.24582204460894       -6.14275903420404
H            4.35966365227185       -1.74919462037634       -3.75499216568356
H           -4.74821354335052       -4.84186470413053        1.11279779239743
H           -6.02707244378242       -3.05092048446433        2.48082722854235
H           -6.02065760169189       -1.45799782434261        4.36796635002682
H           -4.03803205727962       -1.25003666104937        5.79961024746588
H           -2.03839205128272       -2.63070077303494        5.35957458365491
H           -0.88609060547278       -4.43676828683750        3.88693937872891
H           -0.99618757319728       -6.95058932634232        4.54016787800319
H           -2.13530713621272       -9.12885416303753        4.30256164159609
H           -4.11633718518088       -9.33524484870709        2.86877229975096
H           -4.98234269818509       -7.36485024402602        1.65712861254704
H            5.89928497778025        0.11697357543754        0.52286964553311
H            4.01430405755342       -0.66214342949699       -1.75895033380545
H            5.77559337038990       -0.73713730024839       -1.82557952936861
H            4.95963409669766        0.82000560361427       -1.72704874436057
H            2.83372612527382        0.05879592932173        0.37902919013554
H            3.79323107141137        1.53338646194219        0.40562783818629
H            3.76451248434082        0.47057148040568        1.80921981138375
H            6.71091306314742       -2.39639704055622       -0.85335058313896
H            6.29462918444630       -4.92653840002066        0.81057232784269
H            7.54528939355198       -3.71378259295405        1.08760710038676
H            7.57241092775409       -4.69835083020131       -0.37057535503201
H            4.56820639150772       -4.58276018009362       -1.02579343609011
H            5.79944886932374       -4.26730360731905       -2.24576806867564
H            4.52313455321186       -3.08557535448117       -1.93283187946730
