101
 energy: -18.511749528406 gnorm: 0.000778232247 xtb: 6.5.0 (97a52f5)
C            1.41743469467119        0.20505188524581       -0.19899447832051
C            2.86155978414250        0.31507670809942       -0.65727463382678
C            3.28862865268043       -0.92482991256783       -1.42162082489794
Si           3.11956193233912        1.93579937037129       -1.63639407814664
C            1.68328251470778        2.30810527138937       -2.62700440087942
C            0.95041192481917        2.59779296335284       -3.55267597937600
C            0.25405665537044        2.90215028349710       -4.72611668216871
C           -0.45728889814861        4.12570449701655       -4.85566800185074
N           -0.59670346641865        5.06957602529597       -3.93822876474601
S           -1.44672044935596        6.30584070791622       -4.60433151573503
N           -1.64311920868103        5.67206533108632       -6.10577043968450
C           -1.07272688426013        4.47803790358832       -6.12522178371959
C           -0.98282720117249        3.58323524998209       -7.22414442269301
C           -1.44217066901584        3.91749373417105       -8.50384501286837
C           -1.59129469757286        4.04318752417881       -9.70482549509746
Si          -1.10698032600920        3.73678275927105      -11.39997437230628
C            0.23080984400799        2.37453277975761      -11.30105525209387
C            0.62323891517303        1.75238329339017      -12.62804108411686
C            1.44108861061688        2.83201241096161      -10.50546903382069
C           -2.66435948109492        3.11745560409669      -12.30462830647935
C           -2.56647081872495        3.20005935371147      -13.81669549531827
C           -3.03506073458228        1.72837704147432      -11.81717227017737
C           -0.47680393940560        5.36154360995424      -12.17637752882021
C            0.16927491908719        6.24386884341487      -11.12227776650747
C            0.43096908873791        5.14323800287118      -13.37217308219383
C           -0.30980279768377        2.36101190269591       -7.06197905480393
N           -0.27212749953704        1.51289066666918       -8.11344136526953
C            0.46460884085756        0.43108529891213       -7.98046916953667
C            0.43047160445699       -0.48171413138951       -9.14084425215426
C           -0.78424030073251       -0.66966800719699       -9.80074513883147
C           -0.85854868201177       -1.37768284120349      -10.97691210291727
C            0.28846436049793       -1.90480761593200      -11.53805218362200
C            1.49996135851312       -1.73212567069687      -10.90942680958196
C            1.58946927688685       -1.03787405132594       -9.71063911763641
C            2.90511304403007       -0.91509319754752       -9.04662791565995
O            3.88094568765056       -0.49844345154254       -9.64271199233773
C            2.99787250492967       -1.41955188452753       -7.65729822440033
C            3.96340779272101       -2.37467396081487       -7.36814404321638
C            4.06531816666987       -2.92511943235232       -6.11166434443826
C            3.19886771808179       -2.52302306017476       -5.11434944669950
C            2.25113031603134       -1.56197261114122       -5.37604274237381
C            2.12350149486063       -0.98571364767656       -6.63987240748392
C            1.20656358000012        0.16025214249539       -6.78447702429824
N            1.09822866375110        0.92128463551977       -5.71432297627680
C            0.33682856802578        2.03350411539917       -5.82603990712641
C            3.43223295409357        3.38501607654079       -0.43069727580694
C            3.05580973109240        4.70401573600921       -1.08601961339939
C            2.72414003250040        3.21594990146865        0.90128438157567
C            4.61019923683196        1.75156045950521       -2.82018303807295
C            4.19877518791431        1.01985582154230       -4.08805164029754
C            5.27015264639426        3.07758853071794       -3.15079060788331
H            1.26834719292642       -0.66076170837176        0.44859602947424
H            0.75369928071603        0.09208347938026       -1.05724288694907
H            1.09189088694417        1.09096739177405        0.34613334831385
H            3.52328585227139        0.44974844444120        0.20965704120834
H            2.65505068379371       -1.07026443325169       -2.29636649004065
H            3.19837782052556       -1.82148496792865       -0.80596228772082
H            4.32329932389329       -0.86081330267322       -1.76005087352193
H           -0.31494719101018        1.62892950539489      -10.70600736998134
H            1.13040630060599        2.47473510039827      -13.26609517317898
H           -0.24171150921384        1.37645317550107      -13.17387443931594
H            1.30742243705908        0.91474411239137      -12.48107772191993
H            2.01395932258387        3.57521153472224      -11.05944727993428
H            2.11110977239003        1.99812901939964      -10.28600090045926
H            1.14744710666472        3.27825832995643       -9.55403600346503
H           -3.41735157944716        3.83810804319333      -11.95227213894902
H           -1.77743523043988        2.55116412587111      -14.19511347388226
H           -2.34894754004471        4.21525604212017      -14.15156310474066
H           -3.49872377507213        2.88879458198586      -14.29120206857923
H           -2.30483637608725        0.99188432429944      -12.15254180421152
H           -4.01022612437527        1.41740176504431      -12.19618927237094
H           -3.06771178393295        1.68522624322466      -10.72692295800312
H           -1.41723240375116        5.82448919231719      -12.50952467270945
H            1.07927206862500        5.78348565684311      -10.73701313657839
H           -0.49698295532269        6.40875841873808      -10.27372453369359
H            0.44122122660704        7.21927200499396      -11.52950661179194
H            1.38874305403281        4.72772865620291      -13.05930099039927
H            0.64040085153886        6.08150509668476      -13.88899094171509
H           -0.00896907375138        4.45564313372591      -14.09528665542954
H           -1.66902455349977       -0.22530931623285       -9.37787921644223
H           -1.80892839370885       -1.51224576966494      -11.46675345117474
H            0.23339734228569       -2.45349634471899      -12.46386511387449
H            2.40075086640412       -2.13949002241882      -11.33556488799859
H            4.63168059299561       -2.68136964013264       -8.15468153203652
H            4.81735630055804       -3.66957881349987       -5.90781028155465
H            3.27546559386958       -2.95254560561252       -4.12896150046948
H            1.59748480758902       -1.21842046793388       -4.59262313082269
H            4.51869014142104        3.33892801764534       -0.27200007978146
H            1.98100975358079        4.74692991459891       -1.26753573801774
H            3.54845285323558        4.83980520342691       -2.04846176334814
H            3.31706283803872        5.55408150314552       -0.45338241135303
H            1.64253452265299        3.22967086936285        0.76434912778537
H            2.97335926262890        4.02679777865364        1.58807830262840
H            2.98954138827226        2.27784991622643        1.38998371529651
H            5.30877915374902        1.13390274739131       -2.23870616516026
H            3.47508263198212        1.60688510136594       -4.65516362043197
H            3.73279948722178        0.06024061984071       -3.87128473868971
H            5.05330965145222        0.83480881004535       -4.74103772855888
H            4.58112684412674        3.72121218034548       -3.69844652241044
H            6.14946827266125        2.93521333673578       -3.78134094082589
H            5.59008875240157        3.61045404680331       -2.25472623653706
