102
 energy: -18.153201539475 gnorm: 0.000774163715 xtb: 6.5.0 (97a52f5)
C            2.43719310322919       -1.92671875048821        1.46949256792666
C            2.97381679227128       -2.43189804859046        2.79744421684949
C            4.07821336923468       -3.46067764761491        2.63662851910521
Si           3.46019812841080       -1.00370927562260        3.96406580409254
C            2.11847745594416        0.17794784451763        3.99977091501210
C            1.18855753507255        1.01331529682324        3.96223963439194
C            0.28882843686770        1.95116622543657        3.42364937803486
C            0.33174788916571        2.25483062080883        2.06239036061007
C           -0.53098629669806        3.16840112098803        1.50382444713941
C           -1.47635426571280        3.82160732255283        2.28093202594331
C           -2.36942686681206        4.76303780838900        1.74410591582821
C           -3.23271540044735        5.59604517423693        1.53863325140719
Si          -4.56372377664245        6.63771463501395        2.12536529448149
C           -5.53270960811677        5.53557880963956        3.34713390375710
C           -6.52890772609861        6.27210337633945        4.22263478991355
C           -6.16051165601002        4.35858856870941        2.62370064017244
C           -3.70263811575361        8.07468532081025        3.03393710300239
C           -4.60618620734516        9.26761524905687        3.28571826509041
C           -3.02684263683052        7.57580398966347        4.29967291136998
C           -5.60629279089416        7.29089986549101        0.66655884019110
C           -5.63366791234609        6.28182112420969       -0.46780573817542
C           -7.00017228032509        7.72982133029294        1.07491152248732
C           -1.56253246459832        3.55039343723902        3.66913968158808
N           -2.49778683758028        4.21456344331191        4.39184225858461
C           -2.49855277574757        3.89466844381361        5.68352016787747
C           -1.63560894248259        2.97448278310508        6.25204276471607
N           -0.70541387068754        2.30392570300965        5.57185073373347
C           -0.67301916413458        2.60425923769218        4.25355174520641
C           -1.84936404807428        2.80942119545917        7.75427366266875
C           -3.31827470978879        2.42884549409760        7.92596662441591
C           -3.82184389726112        1.30915341534603        8.55971090628993
C           -5.18898197503333        1.12044032226774        8.61643383221112
C           -6.04941593847156        2.04039688116066        8.04461987910874
C           -5.55373583969999        3.16181420479221        7.40915357145950
C           -4.18729163378983        3.35734302986879        7.35046252374305
C           -3.45468023535548        4.52270025025556        6.69416211036530
C           -2.56817757899918        5.13600201608100        7.77348498367700
C           -2.55359548075120        6.45355540382980        8.18923434540893
C           -1.67112705410280        6.84092202474852        9.17841267087436
C           -0.80885491633566        5.92163329924378        9.74862131370032
C           -0.81749627887648        4.60323095803842        9.33710294459554
C           -1.69805122076873        4.20794830270741        8.34845825943021
C            3.67038857202116       -1.75501460318702        5.70300355375867
C            4.33362979914354       -0.79492669124131        6.67229115178912
C            2.32533896478253       -2.23319629709161        6.22236185540362
C            5.06168176033627       -0.10577174542967        3.43332724898162
C            5.24764835443178       -0.05008025992051        1.92814297220492
C            5.08834095587735        1.29288367109659        4.02917420791431
H            1.98415113393763       -2.73302563918271        0.88922933433870
H            3.23081103333713       -1.49798460722742        0.85929552979226
H            1.68115392844294       -1.15297549559967        1.61481261419997
H            2.14284736442642       -2.88389308383279        3.35791694471452
H            4.93898971740604       -3.03761780560719        2.12020303589609
H            3.73967550672350       -4.31942372161086        2.05381212650748
H            4.42797891186546       -3.83102590556104        3.60127787282842
H            1.06187093747104        1.75652213350483        1.44823642310530
H           -0.48099026055991        3.38907414247762        0.45126477432135
H           -4.70832618896322        5.16402566981027        3.97300335288267
H           -7.33084722421839        6.70440237098205        3.62552962869865
H           -6.05948793583824        7.08097269022291        4.78214925641482
H           -6.99145701508331        5.59844006198153        4.94640818139134
H           -6.98869826711735        4.68542069020119        1.99474449795191
H           -6.55438359361181        3.62210042567652        3.32689557393590
H           -5.43622324622426        3.85377853255807        1.98181488600453
H           -2.93217520997439        8.35453215239756        2.29983635681914
H           -5.42907458343894        9.00370330452829        3.94933103870845
H           -5.03823807522724        9.64883572576354        2.35905963051666
H           -4.05885919169638       10.08649393191748        3.75631017900242
H           -3.76633829214007        7.31342254312065        5.05583279862330
H           -2.37387518079058        8.33549742490569        4.73323703590511
H           -2.42524432446651        6.68523800171577        4.10795850160767
H           -5.02150630664774        8.16951423161597        0.35634448239236
H           -6.17559910150705        5.38236604077077       -0.17341455322057
H           -4.62595556971796        5.97632930263574       -0.75569050278695
H           -6.12752189293871        6.68787611726646       -1.35293860921049
H           -7.61225140120561        6.86977912552146        1.34719305518436
H           -7.51115581768866        8.24328867582870        0.25788778650056
H           -6.97827117210923        8.40500797068891        1.93138268435620
H           -1.16062860384695        2.07755420631583        8.19456533136298
H           -3.14533520010415        0.59668504748675        8.99907350302709
H           -5.58790878240961        0.24846029264624        9.10877698367309
H           -7.11430053686731        1.88130378527170        8.09445962190353
H           -6.21482269976284        3.88249068640991        6.95976077113986
H           -4.13607908586437        5.25006455465818        6.23748243609844
H           -3.22669229875123        7.16209823267526        7.73827394340325
H           -1.65364350270157        7.86729116556543        9.50712259117851
H           -0.12341135072747        6.23664180354284       10.51862820564279
H           -0.14697745418235        3.88241042872759        9.77198565916992
H            4.33116286561418       -2.61609489195038        5.53279538077527
H            3.73804349148811        0.11214288735539        6.78064449456304
H            5.33133107062727       -0.50634687423473        6.33841431568229
H            4.43522745865158       -1.23963742660026        7.66370574909651
H            1.63594695917562       -1.39397041270345        6.32571867056494
H            2.42006673603607       -2.70450713437860        7.20241024805437
H            1.86234658102351       -2.95618105277987        5.54960361984309
H            5.85286409572015       -0.72220598519591        3.88275481089430
H            4.41336454618062        0.47314096127625        1.45943736814005
H            5.31407734126941       -1.04258003612024        1.48419925594902
H            6.15961456837746        0.48754910522616        1.66207318858500
H            4.29766134195959        1.90619192112944        3.59478901183597
H            6.03791256606518        1.79406278306516        3.83223360655877
H            4.93200059440044        1.28516703915426        5.10751677341760
