50
 energy: -9.118302208087 gnorm: 0.000628130029 xtb: 6.5.0 (97a52f5)
C            1.10486776701579        0.30612380745790        0.57491752480019
C            2.42506572979825       -0.25326299945300        0.08017922151644
C            2.43267673865360       -1.76850477473435        0.01428755898031
Si           2.90562880718793        0.48863989884123       -1.60977861002024
C            2.24360504067983       -0.39935648145019       -3.15944183479464
C            0.73282953848241       -0.30034094956637       -3.23975736238622
C            2.92773555308148        0.15648491763877       -4.39446293810725
C            4.73460020168990        0.65271639183344       -1.72216213947019
C            5.73731815274846       -0.28234860205411       -1.75328736340341
C            7.06241916234315        0.12481279625097       -1.88325704671339
C            8.09342739446367       -0.82482123399666       -1.91879111412134
N            8.94234410242244       -1.61808974027566       -1.95096068282096
C            7.34311235716482        1.48716144787241       -1.97971704016884
C            6.33658751615061        2.42688826658239       -1.95075597408191
C            5.00745342163296        2.01980026377885       -1.82162617401714
C            3.82329592719225        2.92426422564290       -1.79272218735561
C            3.86254182493848        4.31830146520775       -1.87103565598637
C            2.69459865567560        5.04281592025191       -1.84879713275052
C            1.44385149466133        4.41571730030032       -1.75224232437307
N            0.25449097106483        5.16604830212592       -1.73490469748342
C            0.27016229126520        6.62633061891026       -1.67293492169445
C           -1.05730146746499        4.52091461942383       -1.74561297451269
C            1.41228184747907        3.01802508146679       -1.67439007991267
C            2.57657295021192        2.29868016917609       -1.69037477247248
H            0.85797605638375       -0.07348583378308        1.56802107356129
H            0.29053703546378        0.02785414552700       -0.09457333028362
H            1.12821009216383        1.39588648805610        0.62965524550964
H            3.24033937130256        0.09483525097560        0.73089448171418
H            1.64950886800002       -2.12948690393797       -0.65358379102203
H            2.25781171772459       -2.21244803109557        0.99602860185732
H            3.38493446768472       -2.14715623323703       -0.36143623967537
H            2.54538856413138       -1.44457490804057       -3.00308199646368
H            0.42184735267490        0.73887908551842       -3.35374606067362
H            0.25545676512212       -0.69059816051073       -2.33976412769155
H            0.34150169749014       -0.85564563624421       -4.09413851839593
H            2.68496185436248        1.21220446147858       -4.52410402425683
H            2.61386686260433       -0.36976625003910       -5.29775435249403
H            4.01400431718798        0.07820534575326       -4.31930293997641
H            5.50263418596216       -1.32932871990659       -1.68278129665852
H            8.36962422132292        1.79608350089906       -2.08052435795054
H            6.56901765425477        3.47373953370729       -2.03043603848769
H            4.81060835909423        4.81974474785680       -1.95040339477127
H            2.73770152921925        6.11510112594530       -1.91595361728067
H            0.89621345887124        6.95847887129175       -0.84679590709781
H           -0.73093913755104        7.02293893551873       -1.51601390614984
H            0.65981586622572        7.03553029513248       -2.60316440894616
H           -1.10352857016840        3.77767648956146       -2.53942580442449
H           -1.84922373194570        5.24634605155004       -1.92156708267429
H           -1.24127994618964        4.03395382172498       -0.78977568284404
H            0.47522511005326        2.50043181507136       -1.58963380307962
