65
 energy: -12.614311471160 gnorm: 0.000486734649 xtb: 6.5.0 (97a52f5)
C            0.76920391094907       -0.68134421613296       -0.70265842758093
C            2.15749395337023       -0.07982075554143       -0.58814409299059
C            2.26842588017920        0.88628545486677        0.57676201143221
Si           3.46504642558312       -1.46381485291410       -0.45008541888636
C            5.17519816154885       -1.09519441013466       -1.20136197283554
C            5.75127464839393        0.19273926628135       -0.64587751212339
C            6.08840242616141       -2.28619252567930       -0.97949792662257
C            2.82041223985610       -3.06110009885599       -1.10047073442275
C            2.47026175475799       -3.45694960348634       -2.36485506657441
C            1.99607821130278       -4.75116154377349       -2.57521040562324
C            1.60520461068387       -5.20879845835216       -3.90145978132785
O            1.17437010823504       -6.30185843699339       -4.15674717733836
C            1.89147698272679       -5.61936663967816       -1.49128126623284
C            2.24808152094305       -5.22363227272302       -0.22244875945808
C            2.72181146010395       -3.92756656765030       -0.00692300669810
C            3.14946029750385       -3.36984170944770        1.30629530866134
C            3.11797512646820       -4.04555068639113        2.52899044683175
C            3.54284935961860       -3.41396414079808        3.67436952311531
C            4.01541520742426       -2.09875940034614        3.64633503821641
N            4.44165774254702       -1.43930598792630        4.84053473339271
C            5.02984785024123       -2.18278355836827        5.91822592286514
C            5.88465211796649       -3.25260124953118        5.66558230246309
C            6.45401778752050       -3.95640298304814        6.70266102145914
C            6.18221752860938       -3.60410959564464        8.01025245995612
C            5.33878234613138       -2.54331888128744        8.27699600775942
C            4.76825489803017       -1.83803465507229        7.24160106967342
C            4.30523461948146       -0.01372221312600        4.95461850532143
C            3.16398806157864        0.63156707085239        4.48496972148855
C            3.04506061579348        2.00010506003674        4.57133120053334
C            4.06094946677158        2.74853514246955        5.13309634481012
C            5.19596793500220        2.12233307173097        5.61038847019621
C            5.31800769461892        0.75385726326473        5.52332583426390
C            4.04961508212725       -1.42824279132354        2.42337023781713
C            3.62021686042329       -2.05359629105694        1.28503653979848
H            0.00714231468635        0.09052692220241       -0.82404153677021
H            0.52442994680926       -1.25079093226183        0.19516133180967
H            0.69584348459858       -1.36310121863589       -1.55174396140231
H            2.42560179634718        0.42750877155553       -1.52575386978265
H            2.01400477913851        0.38672208605823        1.51229733629645
H            1.58815176637440        1.73210811042888        0.46194397098416
H            3.28043488954749        1.28015364806230        0.68103582002250
H            4.96169277650138       -0.97981220584865       -2.27358754876936
H            5.89723808237630        0.11536337507912        0.43219715449202
H            5.08949446899822        1.04058444940897       -0.83023052189965
H            6.72013082486151        0.42156572478069       -1.09335626068434
H            6.26381443596475       -2.44075456223853        0.08624459651825
H            7.05888087273597       -2.14242981617043       -1.45794109527178
H            5.64961408710346       -3.20465084004470       -1.37422800399254
H            2.56121121983528       -2.77108862087097       -3.18780887562928
H            1.70302281222985       -4.52000501871218       -4.72831259147934
H            1.52346531967991       -6.61505596880788       -1.67167918554973
H            2.16604762436199       -5.90718562470464        0.60357504670664
H            2.75515537593619       -5.05701491635053        2.56943982180494
H            3.50096598923629       -3.92623424235527        4.61941540679995
H            6.10322057437862       -3.51346134180283        4.64482557964522
H            7.11454742678708       -4.78200484179541        6.49384582206229
H            6.62884594312620       -4.15542811788769        8.82147096704842
H            5.12626045094860       -2.26803108774030        9.29708158360451
H            4.10514260136854       -1.01465762407653        7.44179505006154
H            2.37159172799991        0.04020825585329        4.06057550389326
H            2.15788682019223        2.48766633944691        4.20149615547640
H            3.96716272243729        3.82006924767519        5.20088834351167
H            5.98837393395498        2.70612094621494        6.04946817053538
H            6.20383976623757        0.25990760080682        5.88254248886948
H            4.41914227260123       -0.42060630149560        2.37705214974926
