52
 energy: -9.037336784590 gnorm: 0.000898108510 xtb: 6.5.0 (97a52f5)
C            1.15758270927023       -0.35592070475143       -0.22389196611416
C            2.58091592864701        0.16834560279876       -0.19603200348454
C            2.66219295933924        1.64630644875714       -0.52329539915236
Si           3.35662770531893       -0.20696820829562        1.50205304236690
C            5.11463833378175        0.46878021931072        1.81382692753745
C            5.06139883226810        1.89431897749750        2.33072112128285
C            5.87124855296488       -0.45249333523833        2.75207673781363
C            3.26017675719329       -2.01185443218848        1.85055065495967
C            3.86562018504998       -3.08683469468837        1.25875318227304
C            3.62116997594269       -4.38163576863684        1.73159093048588
N            4.24741720688400       -5.49528112598809        1.14250364547827
C            5.29030751186872       -5.34013845534413        0.13009670335869
C            3.87677663282199       -6.86248456209321        1.50285233030856
C            2.73949109747440       -4.53435314509866        2.81111198884733
C            2.13303857598289       -3.45241257380776        3.40341278360978
C            2.38752555644053       -2.16351299982728        2.93160605832113
C            1.80493479730104       -0.90588114734534        3.48098792706559
C            0.90628656521347       -0.82303697378380        4.54502258069502
C            0.43679935863839        0.40776235446999        4.95093604785094
C            0.84542239184522        1.56591140420555        4.31534741373487
C            0.30707708117710        2.91059761185913        4.77552113086436
F           -1.02334148861364        2.93819308915417        4.54489968672528
F            0.55633068468982        3.04240022797080        6.09631889365857
F            0.92252905464650        3.89399027719069        4.08295755108453
C            1.73265586039584        1.49585478459972        3.25977863532788
C            2.20663465431413        0.27462272281221        2.85330332847854
H            0.70253909309219       -0.22966382255245       -1.20771557907881
H            0.53835913317274        0.17880646116450        0.49769126834823
H            1.11747520413624       -1.41570290212106        0.03403647033589
H            3.20667231748267       -0.40606080071289       -0.89326472716871
H            2.10360149685575        2.23316287073219        0.20647410148441
H            2.24190349501874        1.86007875634294       -1.50739800323925
H            3.69324973719944        2.00273544346060       -0.51598719234550
H            5.57423836796692        0.44686213644126        0.81580596085090
H            4.59280385101066        1.92784568027596        3.31505306841373
H            4.48281068527371        2.54224855855630        1.67118781804149
H            6.06065980224350        2.32151851088834        2.42916977380698
H            5.38003971502637       -0.49431919177579        3.72504189142044
H            6.89457402388965       -0.10872245453679        2.91177468095446
H            5.91599189148643       -1.47150406233602        2.36440705842709
H            4.51946267342433       -2.92642953982021        0.42194355359597
H            6.02588214074116       -4.60938714693626        0.45877747393160
H            4.85274072439712       -5.00799426629141       -0.80849714985891
H            5.80823289403868       -6.28038994004452       -0.04297821260751
H            2.79864478201524       -6.98921679926788        1.42752712046781
H            4.19089992459339       -7.07824845985162        2.52182000535838
H            4.34748294818008       -7.58302167379667        0.83767227662524
H            2.54309740596319       -5.52121145847835        3.18985220385569
H            1.46341367832425       -3.59221484013725        4.23300163543346
H            0.58196892492561       -1.71877754383172        5.04327328963376
H           -0.25748899272212        0.48913213304990        5.77008367831176
H            2.04194660140501        2.39869875809298        2.76535760162371
