49
 energy: -8.599545602955 gnorm: 0.000368427247 xtb: 6.5.0 (97a52f5)
C            0.75663463184349       -0.03869383133878        0.17006150767691
C            2.26200352513695       -0.14667452378053        0.01716404668891
C            2.70724953866260       -1.51184062467430       -0.47143517860869
Si           2.94842321412455        1.22243364391100       -1.11935792748503
C            2.97807785494200        0.85814856494676       -2.98903888113915
C            1.57699959252562        0.63545360359650       -3.52517769251511
C            3.70241857499712        1.97946403624447       -3.71028321448215
C            4.62447923940074        1.72140004515347       -0.54401777426476
C            5.81666647211444        1.04060827011255       -0.48277216335611
C            6.93917724369574        1.68304728254590        0.00649805808261
C            6.85948218709077        2.99896498774389        0.42869546517587
C            5.66443058685426        3.68591311121424        0.36608943747961
C            4.52242398085693        3.05100043740923       -0.12547301591598
C            3.17287928778770        3.67493184741929       -0.25685257195865
C            2.84636388927791        4.98927977279615        0.08531874066713
C            1.56346557519457        5.45026212175174       -0.09575515107746
C            0.55666939261783        4.62942353523054       -0.62428402865832
N           -0.75317601167803        5.10961382672576       -0.80894390529718
C           -1.16406937766559        6.42716304522223       -0.32769918144602
C           -1.76466524520672        4.31898437251304       -1.50819950338061
C            0.89139884606972        3.31347039196317       -0.96546687304156
C            2.16798406162867        2.85529793218735       -0.77984968892825
H            0.37170707745175       -0.78557349417787        0.86725091105899
H            0.25713921671041       -0.19417269761767       -0.78679243118884
H            0.46199610356801        0.94588308877594        0.53826371612450
H            2.74749582474440        0.08087760654950        0.97760331109818
H            2.25507840654678       -1.74271430392303       -1.43695772724987
H            2.41631889164384       -2.30096509440028        0.22482662738136
H            3.79069434963495       -1.55672933239501       -0.59801703622235
H            3.56099993868704       -0.07124458550579       -3.05893232631610
H            0.97524290439267        1.53837671620827       -3.41389825256446
H            1.06517147836648       -0.16876151889599       -2.99453358476458
H            1.59176687568195        0.37948798358572       -4.58640097217222
H            3.16156596164300        2.92023250128539       -3.59532612729202
H            3.79201230412194        1.77713148600812       -4.77943590567670
H            4.70688296206879        2.12969206919817       -3.30940762077951
H            5.86414099185160        0.01837087746982       -0.81715666125542
H            7.87841164608946        1.15678987874419        0.05919807254994
H            7.73946921396266        3.49174119333374        0.80925554262867
H            5.60730603996315        4.70879098442357        0.69365024941596
H            3.60436410964011        5.63765777769638        0.48767280625637
H            1.32734122467610        6.46733384650714        0.16153902147274
H           -0.85267240563132        6.56304525412380        0.70656146803273
H           -2.24617843257949        6.53731995504190       -0.36740542865035
H           -0.71457889588817        7.20627194954809       -0.94096194648846
H           -1.36326780273899        3.94342613823063       -2.44816961439708
H           -2.64282019104905        4.92044341801429       -1.73641024616610
H           -2.07331081509049        3.47689532599048       -0.89086409394596
H            0.14629596126783        2.65002112729021       -1.36285225510536
