71
 energy: -13.887550374280 gnorm: 0.000683105634 xtb: 6.5.0 (97a52f5)
C            0.55182337317247        1.19606835077869       -0.00040170901066
C            2.00445712779758        1.50075801098297       -0.37189109066991
C            2.88488159151021        1.64106628751556        0.87213783816945
C            2.55801292774810        0.46340855805967       -1.32896213192961
C            2.70773913157813       -0.85599438051176       -0.93963620234447
C            3.21433132984499       -1.82446302829654       -1.79039483609717
C            3.33691680441608       -3.24293235454706       -1.24910570757341
C            2.38498947685508       -4.22161136213201       -1.94019972817559
C            4.77718336756104       -3.75975522456682       -1.25279380301564
C            3.58337089269297       -1.45255770181390       -3.09842175304149
C            4.13862092676717       -2.43447797848647       -4.06651822926357
C            5.50741958970716       -2.59657124546690       -4.22652736634322
C            5.95083111507183       -3.49963576361084       -5.15053458906540
C            5.03654589753333       -4.22218568945541       -5.90719614100571
N            5.52127116741551       -5.19131818843261       -6.83677093030530
C            6.66581014460566       -5.12922877434438       -7.67376225634931
C            7.58961942294353       -4.11426607829003       -7.89899896590791
C            8.60255833885169       -4.32868078983232       -8.80689278661798
C            8.70494720408859       -5.53377355059402       -9.49974525397170
C            7.78840364046255       -6.54316616382137       -9.30174933216244
C            6.76566588454435       -6.33612357626612       -8.38967087864956
N            5.66955992579567       -7.14944903136984       -8.00071879404183
C            5.02445970928930       -8.38254206500362       -8.13876859437354
C            5.28725253725292       -9.52081753548029       -8.89568930687849
C            4.43662216569289      -10.59239049718984       -8.77652591014315
C            3.33243985088366      -10.54727234487011       -7.91438994611231
C            3.06200076969277       -9.43536842675060       -7.15847076581625
C            3.91282181907048       -8.32399750603592       -7.25993806051546
N            3.86960749007895       -7.12346182033199       -6.60906865730483
C            4.91053691233389       -6.44395273086757       -7.06766967205250
N            3.71255109512486       -4.06015594077967       -5.78761728187266
C            3.30834737956998       -3.17652152207181       -4.90093571039433
C            3.43003659636048       -0.11327298330456       -3.50524643438833
C            3.81007850313217        0.32488359168779       -4.90835380697897
C            2.58978961870519        0.81818981474202       -5.68791700362585
C            4.92660660398550        1.37072764294592       -4.88446043607080
C            2.92244972309524        0.81532395651211       -2.61695570386335
H            0.13053823010329        1.97198724813015        0.64054429159587
H            0.48042855783645        0.25130488831134        0.53850913037262
H           -0.07566057293050        1.11415203951148       -0.88911072891943
H            2.02000878248148        2.46800764735422       -0.90423371649966
H            2.88951974039401        0.71713833639055        1.45035877445097
H            2.52765039398456        2.43579195375177        1.52874746861374
H            3.91840885487691        1.86399004969153        0.60312912224386
H            2.42044623056928       -1.13539165076957        0.05817587372462
H            3.02327838114002       -3.18644050397739       -0.19081146830685
H            2.70351852207697       -4.42165798401692       -2.96141159054382
H            1.36868225150605       -3.82705073970562       -1.97956862107329
H            2.35477942266647       -5.18230600156850       -1.42379290588439
H            5.11610681991598       -3.96217544442099       -2.26710742419070
H            4.86862421113232       -4.69336560091383       -0.69548385706238
H            5.46135455506338       -3.03387190974007       -0.81105384578904
H            6.19267873553611       -2.02381490608048       -3.62529032110043
H            7.00219016092502       -3.69037377529219       -5.27136254187658
H            7.49233237154238       -3.17444175558719       -7.38626037096151
H            9.32530956613449       -3.55024033800773       -8.98889340154790
H            9.50702952687911       -5.67445714943743      -10.20557008524208
H            7.84743266032341       -7.47333405873206       -9.83822583295334
H            6.13955656780606       -9.54366934037926       -9.55096635388806
H            4.62072316654669      -11.48322125150590       -9.35425520149974
H            2.68429174872545      -11.40529429579778       -7.84362352402449
H            2.21964632159904       -9.39531125052948       -6.49141024472682
H            2.24413610359981       -3.02487769154339       -4.82237101748996
H            4.20037307557038       -0.56226616837452       -5.43495075074251
H            2.16685170486232        1.70929400536168       -5.22436750199928
H            1.80602384585976        0.05981044055361       -5.71652334678054
H            2.84823801285605        1.07486964610963       -6.71631235909671
H            4.59173405495129        2.28616304903073       -4.39689757736678
H            5.24879591086815        1.63612354258440       -5.89246738588896
H            5.79713811192035        1.00725953181785       -4.33640171246967
H            2.80594391745595        1.83664747912733       -2.93208903507143
