8
 energy: -0.878262520519 gnorm: 0.000113184839 xtb: 6.5.0 (97a52f5)
C            1.04521607463616        0.04114989709009        0.08858805594408
C            2.53664886894517        0.04115232281697        0.08859146870142
Cl           3.12938789566743       -1.36963184305914       -0.79653643302941
Cl           3.12938286167901        1.51309039669627       -0.69061823313317
Cl           3.12937955596145       -0.01999860487767        1.75293339477080
H            0.66376359418397        0.07871024080532       -0.93367893388489
H            0.66375906289178        0.90767698383302        0.63224906748468
H            0.66376208603503       -0.86293939330486        0.56719161314649
