8
 energy: -0.628552275346 gnorm: 0.000634235106 xtb: 6.5.0 (97a52f5)
C            1.31643904132151       -0.00247044976232        0.47417217155920
C            2.62600327764106       -0.47291252765314        0.80977689765336
Cl           3.83098367333117        0.73943701414191        0.51110304020686
Cl           2.69836626473109       -1.02733760831609        2.45073366728535
H           -1.83070467566395       -0.17573995077737       -2.30272989090574
H            1.03277502808628        0.84774424318757        1.06630089862054
H            0.57633760416458       -0.77540265948893        0.56457927461312
H            4.42127978641426        0.60079193868708       -2.49746605902808
