16
 energy: -2.267546090277 gnorm: 0.000770387940 xtb: 6.5.0 (97a52f5)
C            0.83059151774154       -0.16103740636252       -0.10359681005279
C            2.33827698208191        0.03770370298124       -0.02630149761793
O            3.03637690223915       -1.18145277737303       -0.21818480463211
C            2.84951952759328        1.10235288092888       -1.02882670634805
C            2.54791985678388        2.52414453355380       -0.57490163562903
O            4.23350472335927        0.91331383959853       -1.27127986344104
H            0.50490634514689       -0.92197360066417        0.60497891292512
H            0.54232609902627       -0.49656105836404       -1.09875763520349
H            0.28689727533885        0.75866974791822        0.11124936624833
H            2.61620052296015        0.36287413414657        0.98926380303544
H            3.10960164367801       -1.36397506828522       -1.17911829074443
H            2.36712268182738        0.91552781376663       -2.00185800175123
H            3.02021671492698        2.72427706916288        0.38594765648994
H            1.47743129245545        2.69848178878572       -0.46558564954796
H            2.93922434328323        3.24818764570835       -1.28918877750993
H            4.68949357155781        0.73820675449823       -0.42069006622085
