14
 energy: -1.988087914342 gnorm: 0.000913528396 xtb: 6.5.0 (97a52f5)
C            0.85127524690570        0.12232223028878        0.00517696226411
C            2.36678148632122       -0.00829306080393        0.07747927945353
O            2.75950159408576       -0.71478320897893        1.24845988843234
C            2.94841204423215       -0.69599171332393       -1.16300738478297
N            4.38624939748931       -0.82533079535290       -1.05925728994729
H            0.46204460694735        0.61413375705744        0.89639888425970
H            0.39176990586479       -0.86352819935062       -0.05001705893357
H            0.53560510300490        0.69212201788151       -0.86936774287874
H            2.81432604795400        0.99689041456901        0.16297041991256
H            3.69284719950887       -1.01717539894899        1.14468801862124
H            2.66693088085138       -0.15030312601773       -2.07198525045869
H            2.50848892127365       -1.69524409557367       -1.24694445838654
H            4.82015894663736        0.08368639339618       -0.96062697290122
H            4.78565861892356       -1.26513521484222       -1.88053729465447
