96
 energy: -19.119341365239 gnorm: 0.000926636515 xtb: 6.5.0 (97a52f5)
C            1.10951584807125       -0.04814873813430        0.75146478359672
C            2.50098448462757       -0.08851840947552        0.10241274644040
C            2.41387249706095       -0.28861431768948       -1.41713061326596
C            3.31310550053783        1.16669004068861        0.44902847755809
C            3.02457401197145        2.50277317063548        0.16445816262565
C            1.92172884851618        3.00342749135389       -0.47785935893859
C            1.64848833676629        4.39837502006590       -0.61512020311104
C            2.47420544891653        5.38077986526234       -0.04390752744348
C            2.17661083481929        6.71110717323123       -0.14725554593087
C            1.04045501843065        7.15090788213452       -0.83497664596262
C            0.73632909263395        8.58445708996858       -0.93821775054776
C           -0.57607652771981        9.04217398335844       -1.10414018753010
C           -0.85481237911212       10.38243754524566       -1.17906738035438
C            0.16288198362980       11.34161244732410       -1.09035253883079
C           -0.12413978891063       12.78224271333662       -1.16698183274781
C           -1.28323160106286       13.32628449477735       -0.58699649544528
C           -1.78227548316621       14.65578564811565       -0.98365127923283
C           -1.72575440083327       15.09016495280086       -2.31249774717032
C           -2.19577145124674       16.33203275177322       -2.67128786289810
C           -2.73951032860592       17.17007132475073       -1.71767926122290
C           -2.81463392714328       16.75898037785635       -0.40129564090227
C           -2.34572667801642       15.51810731313117       -0.03724170615345
C           -2.02791079785952       12.59327138972344        0.45415242279240
C           -1.36469114621916       11.84780767863538        1.43537781769416
C           -2.06679235729988       11.16896339023000        2.40370727033170
C           -3.44664143936358       11.22201196412611        2.42465743100036
C           -4.12253303707343       11.96090067470046        1.47336235389347
C           -3.42505376056310       12.64065759197258        0.50184760305626
C            0.85619224522178       13.64168432723630       -1.86032741941989
C            1.49965083999568       13.19691970028487       -3.01933198296529
C            2.42449193078896       13.98702531180384       -3.66184604797776
C            2.73379742952143       15.23747039708265       -3.16385557867698
C            2.11577612270943       15.69457804037538       -2.01653338252172
C            1.19143892564200       14.90763262378530       -1.36950209219634
C            1.47727690516484       10.88206657085771       -0.94182342373628
C            1.75475533803818        9.54243110655144       -0.86240221333812
C            0.21405862910175        6.17550269519530       -1.41122334088549
C            0.50589499659188        4.83978051192052       -1.30486236836607
N            4.40054772874652        0.77146680595620        1.16984596999340
C            5.39764068427758        1.68786831622153        1.75090806049172
C            4.78645563477708        2.58436333297758        2.84098727339932
C            5.24636918926508        4.04513658715107        2.75345474179841
C            4.34440212093469        5.00667998671746        3.50587149465036
S            4.68786419698214        6.74576827593898        3.00068984678811
O            6.01950378405987        6.96838882103650        3.62281697123517
O            4.63727462058282        6.62535337906139        1.51696555832317
O            3.52339342918758        7.45184162004976        3.59617403395810
C            4.44169378440559       -0.63740844147744        1.35854340402616
C            5.35889527339853       -1.44047892430925        2.02352320135273
C            5.15292548698490       -2.80400093709586        2.04860472737527
C            4.05063415225225       -3.36701580960788        1.42414606156170
C            3.13183386347692       -2.57090969919595        0.76347512788544
C            3.33160399943153       -1.20648822961132        0.73334317103376
H            0.50102181369135        0.75979426338695        0.35097277637760
H            1.19668770021504        0.09859385941165        1.82741701000846
H            0.57705378853426       -0.98323533557326        0.58212053138974
H            1.86678726438571        0.52088313342352       -1.89626820901638
H            1.90885880783124       -1.22362765970940       -1.65628338777856
H            3.41148810287837       -0.32392315514951       -1.85324259163201
H            3.75070675207872        3.21219210166035        0.50711557583351
H            1.19985808043991        2.32122992658501       -0.88485963593481
H            3.35448732282789        5.09987299848662        0.50282657079044
H            2.81705680842264        7.42286687073230        0.34514502430297
H           -1.38083327133382        8.32972149959804       -1.14462549731326
H           -1.87037829599368       10.71430121007026       -1.30662949376707
H           -1.30844894866754       14.43522714350241       -3.05730078455427
H           -2.13918216023402       16.65194266049945       -3.69879107418831
H           -3.10580474651653       18.14328189797419       -2.00053448830758
H           -3.24022737047759       17.41262440911025        0.34230621589745
H           -2.39657444351972       15.20149890030650        0.99012173397227
H           -0.28921619197008       11.81226983718987        1.42517853982896
H           -1.53862610255818       10.59428599519062        3.14679656860210
H           -3.99497450964220       10.68869143294434        3.18372574719060
H           -5.19917192222872       12.00364420777960        1.49154947274827
H           -3.95200338890298       13.21014076009820       -0.24402897345304
H            1.25471864497738       12.22422319271966       -3.40965593322187
H            2.90968286868266       13.62870613883843       -4.55491988942965
H            3.45907215203720       15.85458795758104       -3.66825174960502
H            2.35978582187970       16.66902595916321       -1.62632208399154
H            0.71755920455266       15.26002954314453       -0.46993225460149
H            2.27399325690331       11.60241255041377       -0.87368200364777
H            2.77534746923300        9.21952564768393       -0.75625596532920
H           -0.65451642351128        6.48557490221874       -1.96474675281309
H           -0.14365307694762        4.10884985773612       -1.75481456087660
H            5.79515196565610        2.29326984475161        0.93067796104263
H            6.25080877607052        1.11967730405297        2.13035716511620
H            4.97773907846402        2.17784940386606        3.84144217546015
H            3.69490242522293        2.55188317350516        2.74003633575208
H            5.27675813828407        4.35265301212532        1.70032442882095
H            6.28413983384932        4.14563960510571        3.09646752100784
H            4.47111892640367        4.91661116069453        4.58483265702505
H            3.29400856265452        4.81132503690825        3.28854240133773
H            6.21145117593170       -1.00216113343841        2.50943406342006
H            5.85725336736600       -3.43982831932231        2.55960565531588
H            3.90623209788057       -4.43438931814939        1.45428956661139
H            2.27190253168135       -2.99916135593868        0.27906834650178
