59
 energy: -12.368603630492 gnorm: 0.000937038718 xtb: 6.5.0 (97a52f5)
C           -3.21819231494988        1.78379167309102        1.18561700320064
C           -2.12818051037595        0.86223764330670        0.61423789016465
C           -1.93300920886352        1.16452409046021       -0.88033813597080
C           -2.54989069376474       -0.62992091224696        0.79885339843851
C           -1.44856325616755       -1.61308866092471        0.50653381613977
C           -1.81192424922339       -2.92761989317101        0.06544851116306
C           -0.94830052623163       -3.91574770545332       -0.25751085505220
C           -1.31389599682476       -5.23367109815076       -0.72280545418136
C           -0.30773980009630       -6.15336737667596       -1.04243548052056
C           -0.61507354480040       -7.40812861502417       -1.50417530746349
C           -1.94085020227830       -7.80181415634095       -1.66664596092611
N           -2.26145118004232       -9.10611883911262       -2.16665167366197
C           -3.22579475129557       -9.99150901109814       -1.63629726677551
C           -4.06135976140608       -9.87526420001548       -0.52657834236412
C           -4.90779479095539      -10.91394683290963       -0.22460538739695
C           -4.93476145277414      -12.07102112560471       -1.00606838912978
C           -4.11026326292259      -12.20718157285971       -2.09710593529854
C           -3.24449891378702      -11.16108338808639       -2.41417589769126
C           -2.26196559987363      -10.99704007232605       -3.46029388797005
C           -1.86258256480303      -11.82580441711655       -4.50817172073456
C           -0.88961096955968      -11.37670770336869       -5.36856769045724
C           -0.31239019138681      -10.11571351674210       -5.20481625501529
C           -0.69447476615271       -9.29025349846209       -4.17566142331021
C           -1.67241948033800       -9.73389055278197       -3.28672849485130
C           -2.94838516511257       -6.89626663783469       -1.34359498608807
C           -2.64454272441220       -5.63984626407740       -0.88262296409630
C           -0.15242140204264       -1.23485147547946        0.66102420691620
C            0.25788988967503        0.06871936446295        1.07062054901078
C            1.58823937179530        0.36984915231010        1.17351493241047
C            2.00376440014146        1.63947892757544        1.56262463565372
N            2.30116721417097        2.71719340441934        1.88782373156264
C            2.54055508951266       -0.60062837154498        0.87773625194308
N            3.27527266583810       -1.46337577944615        0.61055978356405
C           -0.78812372939560        1.10262753454394        1.37509039360919
H           -4.16595838156882        1.63083266309202        0.67082852192571
H           -2.93908871273222        2.83081355715982        1.07324609371198
H           -3.37684033552161        1.59135936430910        2.24604604885511
H           -2.85399002867448        0.99486967731479       -1.43664996647872
H           -1.16081815715159        0.52572694385047       -1.30704369053540
H           -1.63219887787222        2.20032162924236       -1.03252956314854
H           -3.41126147327015       -0.83962918708847        0.15696313950781
H           -2.89592646236456       -0.78171012287783        1.82608490342139
H           -2.86527920620954       -3.12322495020925       -0.01583394692419
H            0.10571732716239       -3.72452192030614       -0.17906794764439
H            0.72192296105225       -5.86371565805598       -0.92131576039065
H            0.16629943450288       -8.11253969269576       -1.72931209147505
H           -4.02498312991616       -8.98925988017018        0.08106579731958
H           -5.55909909880254      -10.83670419430486        0.63032093167419
H           -5.60963347625855      -12.86985812431305       -0.74631318989118
H           -4.11993509489635      -13.09723871639686       -2.70093646296779
H           -2.31722087794217      -12.79289395825580       -4.63079143913456
H           -0.56949993286002      -12.00411185286555       -6.18403575726982
H            0.44263161004250       -9.78530241299719       -5.89895810113329
H           -0.26375600513118       -8.31271703701639       -4.05539967488949
H           -3.97330228713762       -7.19088730112190       -1.48573061225980
H           -3.44239885380432       -4.95931437892397       -0.64683314228648
H            0.62850565886912       -1.94155347804708        0.45494316322518
H           -0.40618731546993        2.09821474331930        1.12815454119755
H           -0.97583690544419        1.11155417415582        2.45319461077234
