46
 energy: -9.407831119925 gnorm: 0.000686975586 xtb: 6.5.0 (97a52f5)
C           -3.33155983566800        1.33632529603942       -0.02962831665639
C           -2.18333525597131        0.35245098633773       -0.30832606312624
C           -1.90596660896566        0.30267652209303       -1.81956648403962
C           -2.57454384715057       -1.07090258550909        0.20237788132474
C           -1.42953121024011       -2.04743194920076        0.22849147229879
C           -1.72870569170454       -3.44761186728538        0.12994965847109
C           -0.82341706417997       -4.44821699601720        0.16627730251907
C           -1.12393554822990       -5.86019819870042        0.06708487280616
C           -0.08536502310769       -6.79160549278020        0.16873041419676
C           -0.33500010822629       -8.13901801888999        0.08096665769980
C           -1.62390265353676       -8.61076425045418       -0.11488103832223
N           -1.84605459709292      -10.02914070439866       -0.19704902992904
C           -3.00730274171665      -10.66627950341397       -0.61886839800991
C           -2.73927177405461      -11.99363873534876       -0.53245381781065
C           -1.41835003921650      -12.09635994790934       -0.06036416257297
N           -0.89250711497926      -10.91277175925739        0.13364701239073
C           -2.66417794787809       -7.69649699765757       -0.21625757758603
C           -2.42121582837280       -6.34692258768906       -0.12752080650179
C           -0.15719222594978       -1.58979884736877        0.34896490329031
C            0.19186844948742       -0.20911678708515        0.44677258410033
C            1.50427483870466        0.16159365289689        0.53763069827238
C            1.86138917498503        1.50337571990729        0.62671530324479
N            2.10526293699229        2.63965165994870        0.69408792955681
C            2.49724635770870       -0.81353359574382        0.53247540228140
N            3.26417550683340       -1.68928036134324        0.51814242170683
C           -0.89953061712385        0.82199094823436        0.44256352712397
H           -4.24189900053645        1.02669455824430       -0.54141513199363
H           -3.07621627418777        2.33807116592209       -0.37288504238001
H           -3.54814533520370        1.39271845097060        1.03640691536752
H           -2.78767531833090       -0.02618093562727       -2.36797045593217
H           -1.09441329316097       -0.38886080421895       -2.04170338115097
H           -1.62139595844504        1.28434803457672       -2.19605476716714
H           -3.38027578200499       -1.46566489778509       -0.42431096464923
H           -2.99132761358345       -0.98895774498944        1.21104095354285
H           -2.76755139871625       -3.70173574937193        0.02781475986163
H            0.21485581572439       -4.20034212735303        0.28473211396389
H            0.92074244961189       -6.44023795859098        0.32063410886695
H            0.46480402149613       -8.85381312007907        0.16484942984329
H           -3.91643813839345      -10.19790674345364       -0.95787341598733
H           -3.40419389473988      -12.80682229271682       -0.77822043318519
H           -0.88353682467610      -13.01781185849281        0.12293065950085
H           -3.66803137120624       -8.05569218050943       -0.35743403074814
H           -3.24247606312697       -5.65842226810403       -0.21083031237548
H            0.65423998743315       -2.29182598364459        0.36200995372506
H           -0.53201004818794        1.74681368856727       -0.01304869964378
H           -1.15234749110135        1.07577316724881        1.47662539380424
