45
 energy: -9.260736285375 gnorm: 0.000684925748 xtb: 6.5.0 (97a52f5)
C           -3.31312774810705        1.35681518585904       -0.04609633638129
C           -2.17310011956293        0.36255064031103       -0.32197662932872
C           -1.90096045251937        0.30099159174925       -1.83379268882796
C           -2.57360084503868       -1.05460992286696        0.19905275742677
C           -1.43612288596620       -2.03962627339956        0.22843550971576
C           -1.74511068308719       -3.43781366919189        0.14058111242525
C           -0.84483673064323       -4.44375776433682        0.16473412607706
C           -1.15440913276183       -5.85397716515182        0.07966100780034
C           -0.11517576684231       -6.78888428651115        0.13362073290304
C           -0.37286437845455       -8.13495305461740        0.05631374797487
C           -1.67120989800967       -8.60190608540610       -0.07895497443082
N           -1.89991535916961      -10.01572362000081       -0.15541936902109
C           -3.10179402776143      -10.68652459181675       -0.36853270122879
N           -2.85887510391401      -11.96450753890921       -0.36721212330370
C           -1.52735108723873      -12.07087384469893       -0.15539262320471
N           -0.92249142528636      -10.91612341669315       -0.02559584622500
C           -2.71229969964860       -7.68456877817187       -0.13254908463370
C           -2.46102152514204       -6.33631431612598       -0.05480030612863
C           -0.16023072321325       -1.59038968721925        0.34487440701408
C            0.19895155194274       -0.21234254896692        0.43525932058852
C            1.51415586986713        0.14760492207558        0.52996678281020
C            1.88225472343362        1.48641146610675        0.61496792753033
N            2.13522681187058        2.62123293879991        0.67365235191153
C            2.49740721008108       -0.83700091884363        0.53435601864203
N            3.25121633438296       -1.72394379729665        0.52725995799873
C           -0.88348573893147        0.82790697861154        0.42178044816879
H           -4.22728032556055        1.05081534049122       -0.55298428206613
H           -3.05145498815075        2.35435622776554       -0.39652841213537
H           -3.52596554179277        1.42173729624990        1.02009787704400
H           -2.78701642670350       -0.02399039970772       -2.37731589854231
H           -1.09585806993503       -0.39855184386550       -2.05418744991235
H           -1.60967739646566        1.27781860118743       -2.21749535050502
H           -3.38376145102168       -1.44733090058465       -0.42295366725360
H           -2.98699304298887       -0.96306108884426        1.20815574102445
H           -2.78680991402569       -3.68614123200615        0.05474450860929
H            0.19724504362709       -4.20096718819553        0.25728530147571
H            0.89800619987067       -6.44101455894168        0.23859170708235
H            0.42735288474530       -8.85286680562919        0.09969309694506
H           -4.07350038225905      -10.24259913747907       -0.52187892495674
H           -1.00991252037182      -13.02103031873366       -0.09945058363624
H           -3.72207683485752       -8.04067840658288       -0.23222143407968
H           -3.28312819794307       -5.64537817202170       -0.09765088223177
H            0.64590732802086       -2.29841798149817        0.36507939385639
H           -0.50825259391331        1.74439911225733       -0.04411610547418
H           -1.13194294055023        1.09495901285675        1.45342183848677
