77
 energy: -16.815704364898 gnorm: 0.000407327046 xtb: 6.5.0 (97a52f5)
C           -0.03750094791344       -2.36829409337540       -1.32052127035262
C            0.00213706645501       -1.51519174997646       -0.04558787022418
C            0.03652800878903       -2.39903173138271        1.20834636328046
C           -1.18918468549442       -0.55335058531214        0.00113027093668
C           -2.53933411252332       -0.81812617134513        0.01034186226597
C           -3.45376745447638        0.24028855447531        0.01979709712257
C           -4.91081150260874       -0.03628992168183        0.01210654347750
C           -5.47849514297833       -0.77209856049781        1.05523180310318
C           -6.82134432842302       -1.05707608626298        1.09181424705718
C           -7.67316274460447       -0.62548391291741        0.07163279190428
C           -9.07313542885562       -0.91125120765739        0.07929369939682
C           -9.87942611578818       -0.49745810783183       -0.92399304058950
C           -9.36068084454511        0.24085870389473       -2.03337952966438
C          -10.16997666477298        0.67192753869106       -3.08603051449117
C           -9.63562078710905        1.37755937471916       -4.14428514129207
C           -8.28879704996653        1.67249000179325       -4.18628032154663
C           -7.43632694101129        1.26463525080709       -3.15850198325042
C           -6.03500555900137        1.54393400744096       -3.17112481774371
C           -5.23127206290405        1.13433888184362       -2.16423511718971
C           -5.74237749475922        0.41102092325854       -1.04293305100224
C           -7.12656184813301        0.11072985733333       -1.00700424946496
C           -7.97690211193477        0.54180054689363       -2.06784076442553
C           -2.97045827600001        1.55653320159765        0.03544131170679
C           -1.62069561818848        1.82589403757470        0.03122552961701
C           -0.72305723350942        0.76527749378103        0.01124848041277
C            0.74149643867039        0.76120588751815       -0.02218118886019
C            1.64548858473204        1.81646788950278       -0.02379213366258
C            2.99286648876222        1.53951067909619       -0.07117884801631
C            3.46812730246775        0.22095984920932       -0.11703382315014
C            4.92179830510732       -0.06226306131682       -0.18361277327515
C            5.42902904842136       -0.79811667009579       -1.25756498080736
C            6.76848306122671       -1.07613610849676       -1.37610205224032
C            7.67909398034742       -0.63512446098053       -0.41254874983791
C            9.07833268502680       -0.90769165284294       -0.50954875037275
C            9.94360613197332       -0.48157475326677        0.43779803083056
C            9.49004412898915        0.25608069741287        1.57576995030426
C           10.36169667178177        0.70122710219680        2.57119241661911
C            9.88986049647296        1.40570830520682        3.65948227998808
C            8.54532412464138        1.68523310584225        3.78889098231697
C            7.63204568363675        1.26329801471231        2.82076380305452
C            6.23144737599537        1.52646911151158        2.92444676552201
C            5.36859143488932        1.10708286171679        1.97197703472623
C            5.81357816899970        0.38884428345678        0.81954884650373
C            7.19534076127075        0.09928887307718        0.69693435245324
C            8.10815595830903        0.54211940213915        1.69945797402911
C            2.54692259067258       -0.83164717130330       -0.12065426045111
C            1.19914931911595       -0.55957932477200       -0.06841940219087
H           -0.91981258584303       -3.00734025601830       -1.33399242851002
H            0.84407101020569       -3.00467317572914       -1.39069595895874
H           -0.06698572014277       -1.73277795647026       -2.20508458479663
H           -0.84773915003605       -3.03320817334081        1.26183659170630
H            0.06718373114825       -1.78531245474051        2.10810879875796
H            0.91634615586349       -3.04159914983610        1.20758591296282
H           -2.89213830197215       -1.83308387035865       -0.00631092237978
H           -4.83701295099398       -1.11079816257845        1.85078023960971
H           -7.23245753688163       -1.62060053867916        1.91164929767620
H           -9.47897381024311       -1.46938917496826        0.90531051868066
H          -10.93162923831634       -0.72299387712988       -0.90282361969736
H          -11.22183137472151        0.44436685548974       -3.06343393583693
H          -10.27727378335313        1.70035944972356       -4.94791944347653
H           -7.88032470977541        2.22137515357464       -5.01728163547136
H           -5.62588863046860        2.08708337211442       -4.00547774777426
H           -4.17716980287015        1.34396807102990       -2.20312034609063
H           -3.68019979746845        2.36565454762447        0.05694293975805
H           -1.25471623068646        2.83748908518916        0.03924738811389
H            1.28605636063476        2.82994556353480        0.00789699852099
H            3.70651600812460        2.34530572004998       -0.08754581032540
H            4.74274002962029       -1.13943158235059       -2.01363760586853
H            7.13167600889836       -1.63860516964111       -2.21898012392640
H            9.43555878708848       -1.46480112695985       -1.35840889225940
H           10.99456470098924       -0.69617182780252        0.34903213906005
H           11.41242562577498        0.48588750499834        2.48010951596733
H           10.57920191802309        1.73991728442950        4.41766779167960
H            8.18594461051981        2.23318708866894        4.64286368677310
H            5.87131297497399        2.06540151196941        3.78374366048793
H            4.31686169112000        1.30336555162499        2.08083954115223
H            2.89262514954134       -1.84860936880724       -0.15458976805989
