77
 energy: -10.939216447969 gnorm: 0.006806301638 xtb: 6.5.0 (97a52f5)
C            0.81096748831075       -3.15600575635397       -2.07108432189283
C            0.63168822945569       -2.41923422502202       -0.72775836479796
C            0.69016595243366       -3.43841473755548        0.42912875439780
C           -0.67475580197479       -1.72361604060772       -0.71438794098482
C           -1.89984590900258       -2.26379743386501       -0.77731578312759
C           -3.04725930668154       -1.54320787283322       -0.73816441605178
C           -3.20565809679893       -0.17624400112728       -0.69857518911827
C           -2.51986577377712        0.74011672567964       -1.36735082045787
C           -2.69166526988542        2.07602296368838       -1.27387848904863
N           -2.02499944647708        2.98868614118084       -1.99604605531911
C           -2.17253161380378        4.31275378084119       -1.92907468471655
C           -1.59894811145674        5.24230254927260       -2.63535115146488
C           -1.76181259415134        6.57871872475496       -2.48355264016491
C           -1.20216666202829        7.58998325464250       -3.13949060020343
C           -0.38694568315169        7.64571617931302       -4.18137496863243
C            0.08462219487456        6.73950400840430       -5.02018488774987
C           -0.16567391587509        5.47950045746150       -5.09286076234724
N           -2.57939742376411        6.98883678989076        0.79692315309887
C           -2.94743184886019        6.05425485473072        1.56092473819088
C           -3.34158897480355        6.08970832376566        2.86803011792899
C           -3.46283831617053        7.16405663370562        3.65319896669723
C           -3.83407258071500        7.17828913999946        4.90543318709189
C           -0.05930781078555        8.79970859267888        3.61415202147970
C            0.03719135492858        7.47400861203390        3.48094236312764
C            1.17855085241825        6.81997799894192        3.52015143249488
N           -5.80409559979646        3.07358761570136        0.60003456868221
C            0.13414208705685        4.03873139387388        1.85897810520602
O            0.27665927062044        4.68047441641458        0.65947606934031
C            1.20569168842723        4.30524677894420       -0.31083099928859
C            1.49976993012772        4.83812860646687       -1.61296750855413
N            1.80162859198058        6.14674503159062       -1.81937930426579
C            2.13012848523662        7.09404652570015       -0.99612751358571
C            2.30745953598381        7.12063738159800        0.34568418225569
C            3.44503301050574        7.29633538455175        1.09973223261741
C            4.49210239674685        6.53247977552054        1.20180361231725
C            4.74995506698844        5.35226885503041        0.55761760470665
C            4.62467080655244        5.06431519781034       -0.73977344450732
C            4.27203706851835        3.91207693740363       -1.28751839079331
C            3.94014949246756        2.80083559452847       -0.64955940492830
C            3.16362095433437        1.79855591530196       -1.05912335480943
C            2.24428500172872        1.71815417817929       -2.06512039202120
C            1.61446190522475        2.61083207611651       -2.76952077708882
C            1.55394452205044        3.96911865835837       -2.69114871561761
C            3.15659762540561       -3.98960308840793        2.99711039504621
C            3.94273611293902       -4.21093477822146        2.02463776337856
C            2.99277019599250       -1.62130780703265       -0.46287525518064
C            1.71009673978183       -1.41849470438453       -0.56296217641441
H            0.03063324078483       -3.90230255756894       -2.21545848079187
H            1.77404424705977       -3.66347846616293       -2.11323058034029
H            0.76303820214914       -2.45331463666565       -2.90222611111592
H           -0.10256807563585       -4.18022088841612        0.34164304823114
H            0.57684178958224       -2.93474254818927        1.38860503685271
H            1.64212393170367       -3.96739204781099        0.43608113892591
H           -1.98673399767581       -3.33493791034951       -0.84140187382683
H           -4.68739426822269       -4.09248875672777        0.96231201507281
H           -3.43612945291896        2.42799294024701       -0.57597830484272
H            0.28256281700685        9.04012649369011        0.64682194876895
H            4.72070566412919        6.63187962217575       -2.69089406823422
H            3.17638336676549        8.30853125919603       -8.57408467091866
H            1.14080244705345        2.23057416528861       -7.74309414887551
H           -5.54279383371903        2.56912524785509       -2.32054981613540
H           -2.51943055808571        7.95854768888527        1.07859648215293
H           -5.36239424695822       10.38867888930042        5.01592689946769
H           -0.96731205821462        9.33246664057777        3.60013943698184
H           -0.86668090662850        6.90152553823035        3.34043601096417
H           -0.54686722499526        4.26853831253627        2.62440070017311
H           -0.35096572133610        5.48413188943668        0.43648960657228
H            3.77409549415790        7.07125183601255        4.61014475261722
H            7.41173037962379        6.19521689165452       -0.93463528804855
H            6.31292483339403        2.69605013002992       -2.90564314021533
H            5.29007284862852       -0.22254276072949       -1.50999401284872
H            2.85388685602905       -0.75676746759628       -3.38639584814432
H           -0.08401056830548        0.28577164542574       -2.63270609562045
H           -1.16195230055111        2.82674020572210       -4.82154569622611
H            2.79494844613339        4.73725110403275        2.74585457476334
H            5.40915394910864       -1.70047908473080        1.48545226080909
H            3.43449886535926       -2.57339899273864       -0.48774675461794
