116
 energy: -24.940527825225 gnorm: 0.000603514424 xtb: 6.5.0 (97a52f5)
C            1.13257997861510        0.02646225589409        0.35712889437520
C            0.31788098208078        1.08072129529833        0.16411670303030
C           -1.13161527770246        1.06753800774449        0.29008404870316
C           -1.85637853824385        2.06150682678359       -0.36370698267708
C           -3.24253729585688        2.12182074050362       -0.34139086196063
C           -3.93718032387761        3.22341838633460       -1.05023614863494
C           -3.66839602115230        3.47866981513481       -2.41621496722975
C           -4.30332023881005        4.47825685731255       -3.08436023985585
C           -5.25433499260849        5.29612615157728       -2.42956379985255
C           -5.93797949267737        6.33743770895207       -3.09415822854251
C           -6.84931915848856        7.10479525976802       -2.43070448709222
C           -7.12248611572050        6.87213172859318       -1.07694656804850
C           -6.48054754348240        5.87645801855204       -0.40415487590141
C           -5.52909971181249        5.06164413788352       -1.06068325249426
C           -4.84943734688099        4.02218811987210       -0.39572802072611
C           -3.96246631471611        1.12350854840203        0.36413778504685
C           -5.41109225180434        1.11567475493635        0.33895475101026
C           -6.20910471792301        0.36922272389096        1.12411958181714
C           -7.65724685384775        0.36919885337239        1.07570529897756
C           -8.37938803019860       -0.38704215149038        2.00560690100429
C           -9.75100706691817       -0.41457108656645        1.98485397374463
C          -10.46717825565087        0.30759968302023        1.03025680661112
N          -11.89512433537596        0.26903335081878        0.99978297645188
C          -12.64425115227166        0.10886135106942        2.21450985307295
C          -13.79073707591796       -0.68111067330261        2.24310028277565
C          -14.51375989122886       -0.82779874228788        3.40543287940224
C          -14.10710110648137       -0.18697036490739        4.55971287735648
C          -12.97338237076885        0.60222680643726        4.54680911855767
C          -12.24821329300152        0.74968542308308        3.38591445403477
C          -12.59504769679638        0.38068700408994       -0.24956378704774
C          -13.77742923881143        1.11083016561090       -0.33904641859388
C          -14.45006695731467        1.21377085257335       -1.53586097117502
C          -13.95655945925184        0.58778773376463       -2.66415912447961
C          -12.78656533558088       -0.14288973083187       -2.59063992595918
C          -12.11159932798482       -0.24647354061173       -1.39529691526239
C           -9.75178089917543        1.06371823979162        0.10171055942309
C           -8.38007964451944        1.09747959937863        0.12336180513437
C           -3.24062000075162        0.14501330564186        1.04227341049617
C           -1.85284626768843        0.09920653526198        1.04165649690105
C           -1.17597909815045       -0.94984902909329        1.84307311597564
C           -1.34788819480549       -2.31777727074440        1.52143949363863
C           -0.65646162484101       -3.28636418460346        2.17869306271398
C            0.25626409896407       -2.95253813115598        3.20717013228660
C            1.01908359806452       -3.92965551513606        3.88276184766280
C            1.90199837541147       -3.57029944171808        4.85772026557663
C            2.06501207850514       -2.22395069914196        5.20700858545043
C            1.34266774568299       -1.25505294328344        4.57823190752991
C            0.41898068779617       -1.59141183834059        3.56171254868650
C           -0.32046207500588       -0.61192693916187        2.86965669086545
C            2.57861710723433        0.03826542885750        0.29698272414828
C            3.28885446310657       -1.07440397999775        0.76096738453194
C            4.65988652672914       -1.09818293877066        0.73668481284050
C            5.38620515917831       -0.01258130850185        0.24664429499730
N            6.81385288910097       -0.03534272194090        0.22732010702866
C            7.52027529607202       -1.27967613107140        0.10011938383431
C            8.68181068650885       -1.51293429610949        0.83209631177261
C            9.36306303271273       -2.70275590151705        0.70822998270647
C            8.89898108209893       -3.68048660453351       -0.15025615259978
C            7.75035949328708       -3.46266770642663       -0.88616751978647
C            7.06728080734671       -2.27368729316638       -0.76389311580787
C            7.56343233758484        1.18455758146591        0.34435737985186
C            8.71540535279103        1.38366354191052       -0.41237027959597
C            9.43938440509769        2.54880996006019       -0.29632556033706
C            9.02835821632168        3.53528919097738        0.57898182864336
C            7.89021028303412        3.35090356412079        1.33987274764574
C            7.16440114192727        2.18669946220532        1.22539456343418
C            4.68048689590283        1.09768659098202       -0.21868185736840
C            3.30850264047447        1.12575625490570       -0.19385625373929
H            0.68744861633455       -0.91993070183068        0.59928999429831
H            0.75987170372574        2.01914971775194       -0.11870315346664
H           -1.32081972537995        2.81391070960804       -0.91463736907757
H           -2.95358295805711        2.85511643780870       -2.92513887320999
H           -4.09198687221299        4.65736601259220       -4.12449864257858
H           -5.72903432716678        6.51752391439094       -4.13465364587176
H           -7.36531075143482        7.89648728746899       -2.94904231823430
H           -7.84620286816108        7.48690147064787       -0.56699844148439
H           -6.69117456424782        5.69696545944847        0.63612890001749
H           -5.04638906490459        3.85109668841773        0.64725703310129
H           -5.87353691756083        1.77274051952939       -0.37299051752966
H           -5.75739910582130       -0.26639189395460        1.86329434492083
H           -7.84225473172236       -0.95495548327434        2.74595572107937
H          -10.29311007815794       -1.01054747417791        2.69796469996114
H          -14.09813172056108       -1.18233610583268        1.34188916062236
H          -15.39791648445031       -1.44418161384485        3.41517887174947
H          -14.67414897047971       -0.30169351581728        5.46911015305233
H          -12.65719938896084        1.10498603411767        5.44627225543550
H          -11.37131585337491        1.37303041189711        3.36576410095917
H          -14.15235169311692        1.60113442182799        0.54237366181655
H          -15.36257154301069        1.78451333929035       -1.59310550999244
H          -14.48407209477795        0.66866094188133       -3.60059011180882
H          -12.40233478105061       -0.63397827160041       -3.46982322717749
H          -11.20583021488014       -0.82352248604500       -1.32824483141822
H          -10.29669444739143        1.63372389745380       -0.63038310461038
H           -7.85797505471507        1.69000704747853       -0.60613767673025
H           -3.76602055186070       -0.61535792291582        1.58930616358854
H           -2.02315469909866       -2.57770603936458        0.72437609028762
H           -0.78622251885274       -4.32173442479864        1.91459945021758
H            0.89657180030024       -4.96465768942063        3.61352403842509
H            2.48116964590563       -4.32523500777316        5.36401957750048
H            2.76898210368629       -1.95597185697519        5.97790580668805
H            1.47225951064281       -0.21976094228465        4.84283531873729
H           -0.18200498195511        0.42475015966364        3.11802262418930
H            2.74199307573516       -1.91101118758162        1.16153307511166
H            5.19368298878816       -1.95192608519696        1.11570812867372
H            9.03359663969547       -0.74926602292866        1.50361981095942
H           10.25927468785878       -2.87203801443857        1.28258718099956
H            9.43295690427162       -4.61173463867599       -0.24679696512362
H            7.38930078422294       -4.22401149737768       -1.55828981197312
H            6.17923935114703       -2.09259254820268       -1.34399646292357
H            9.02645898476634        0.61308743195063       -1.09599630650903
H           10.32754221755508        2.69196258272042       -0.88996719325906
H            9.59571961632890        4.44724345741250        0.66912916268208
H            7.57118812880930        4.11856251799462        2.02589451533068
H            6.28481254940416        2.03084315472603        1.82534417739077
H            5.23216379050744        1.93265599241149       -0.61374275373130
H            2.78881909614907        1.98980116339188       -0.56774941606392
