66
 energy: -14.030811997314 gnorm: 0.000593916948 xtb: 6.5.0 (97a52f5)
C            0.74137169755254       -0.38305775656478        0.47959184596682
C            2.25567922717615       -0.20192080570042        0.25391824137138
C            2.58038770859639       -0.27233170433565       -1.25175217294068
C            2.66283692067142        1.18288747465221        0.77553943403900
C            2.08518310460335        2.31832215556242        0.22714210057604
C            2.41263137225729        3.58290723811531        0.67256158289267
C            3.33149266294765        3.73520609287186        1.68752744991487
C            3.91655802476844        2.62409229672335        2.24544331880481
C            3.60129429803809        1.34074094559305        1.80249014872695
N            4.22922109334687        0.21770897900903        2.40630446580758
C            5.19668310726002        0.42301817836775        3.46122771705258
C            4.84620220158052        0.21660176640869        4.79485592420615
C            5.76634689496306        0.41016329155278        5.79499345608501
C            7.06386804298396        0.81798099207875        5.49599617253809
C            8.03959281472173        1.02134320195398        6.56307375679501
N            7.76351709441847        0.79530803192648        7.87340837363570
C            8.86871453963082        1.08640477242830        8.51830562565642
C            9.02876266618509        1.00710612976174        9.96750923626611
C           10.06539273179466        1.68889235193287       10.59776690973156
C           10.20577677504842        1.61491749304975       11.95669405367885
C            9.29765707565896        0.85665401227478       12.65532705550011
C            8.29626520229456        0.22073929336260       11.96098974413116
N            8.13652074096141        0.27740119359392       10.65131119523058
N            9.82439546105725        1.47990232666310        7.55791650441673
C           11.21620799816411        1.79552719986273        7.77630238935063
C           11.68961237855514        3.06901374178580        7.50212154899094
C           13.01470070976929        3.37766443263364        7.71696467833394
C           13.87886165751606        2.41529328912792        8.20174260671057
C           13.41628926483279        1.14125928408440        8.46715976081252
C           12.09169313641569        0.83075705723233        8.25287622189004
N            9.28356817380782        1.43847992889215        6.35149001463391
C            7.41393415128413        1.02478414702857        4.16417306569936
C            6.49631436369287        0.82969425111672        3.16200188151760
C            3.92518881030026       -1.10436338433560        1.98205751703481
C            4.57303688153828       -2.18366375146715        2.58043721778457
C            4.30894233873703       -3.47640281812836        2.19683468948890
C            3.38748183902603       -3.71573082453130        1.20123481944629
C            2.74075755651207       -2.65737649223775        0.59586729273253
C            2.99325289489394       -1.34456453784357        0.96522434009128
H            0.16848841110096        0.39242793689806       -0.02628787702117
H            0.50821546292064       -0.33296788110583        1.54258544550102
H            0.39567361906831       -1.34523131097638        0.10511889858903
H            2.05994883090894        0.50569807924503       -1.80785130066678
H            2.28906311930061       -1.23118954699765       -1.67734664774256
H            3.64972703851671       -0.14371647547156       -1.41528816221401
H            1.36241734622917        2.21250277991507       -0.56291000094988
H            1.94871100431043        4.44894676777635        0.22951597840609
H            3.58960001562673        4.71977174765014        2.04186690541941
H            4.63143580697927        2.73861427987268        3.04055839504000
H            3.84233748193523       -0.09527098708278        5.02431570815278
H            5.50011062050618        0.25146423314774        6.82549420749649
H           10.74383997848942        2.28355579850818       10.01428625182445
H           11.00283275187994        2.13478553510047       12.46296837098610
H            9.36738616965409        0.76599903986885       13.72690855190408
H            7.57601692870184       -0.37370666393125       12.50153512723412
H           11.00443474007408        3.80643925551760        7.12168196102148
H           13.37701310186206        4.37024474994431        7.50517082497734
H           14.91554401801166        2.65745458819538        8.36921541079563
H           14.09141471143073        0.38941960881615        8.84175079741582
H           11.71672341300175       -0.15741274705923        8.45548179181506
H            8.41777140029044        1.33805224846849        3.93595960342066
H            6.76581144705482        0.98488112257412        2.13196284925486
H            5.29387558061623       -1.99271526637716        3.35523184240365
H            4.81960974605914       -4.29813408113122        2.67177984554689
H            3.17384793881785       -4.72668001848235        0.89478753230146
H            2.02444570309717       -2.85724226735682       -0.18175249551185
