56
 energy: -11.736293731314 gnorm: 0.000469962577 xtb: 6.5.0 (97a52f5)
C            0.71981652542084       -0.29532357874716        0.04904758015131
C            2.25105389045036       -0.15351323949157       -0.06178804686296
C            2.68205621775022       -0.18646501205257       -1.54191934784540
C            2.65830381488570        1.20114613198870        0.53346873053028
C            2.15189685151932        2.37019616352140       -0.01488629349297
C            2.48057186552685        3.60957447936718        0.49550966538026
C            3.32856753297887        3.70186805500819        1.57707448999817
C            3.84320268253887        2.55664238664414        2.13535972860401
C            3.52636727216798        1.29798974717975        1.62755166699648
N            4.08287155735836        0.13820411951492        2.23327841324905
C            4.99212437954644        0.28351766054632        3.34781201700489
C            4.56611773275929        0.02780513659037        4.65113259780026
C            5.42976441343853        0.17237454821570        5.70782583809708
C            6.74534875456533        0.57744176196229        5.49617648313414
C            7.66778440036579        0.73527184803192        6.61007041498292
N            7.36255733715687        0.50325620688060        7.88909789001438
N            8.41392498959692        0.74221138794860        8.60870352614533
C            9.39861753676313        1.13174988742688        7.79634213645894
C           10.73840246824417        1.49699741569362        8.23461742438949
C           11.68559024028597        1.91788675694689        7.30789840302187
C           12.95306215935064        2.26905642028514        7.71583139882867
C           13.29201409612304        2.20408382770764        9.05352256260000
C           12.35975741679474        1.78687017223397        9.98390151467228
C           11.09144813044013        1.43606114870270        9.57891986040947
O            8.96255707812825        1.13948454066086        6.50696833842780
C            7.17237673105728        0.83194804802411        4.19643713813381
C            6.31075751221853        0.68691994600237        3.13820113086245
C            3.76904273432401       -1.16033811541089        1.74658413904030
C            4.34370538457216       -2.27716065371333        2.35055288736737
C            4.07004262950009       -3.54849137266098        1.90682020053330
C            3.21260387898201       -3.72813866352620        0.84385982163372
C            2.63920090750296       -2.63208546935661        0.23201358956127
C            2.90275442585596       -1.33990064478720        0.66153237337088
H            0.20729706162815        0.51440658108178       -0.46765328831897
H            0.41266454685171       -0.27456482877683        1.09398308211562
H            0.37514745873596       -1.23297404145524       -0.38385480275902
H            2.22611193771535        0.62474093536091       -2.10705683688020
H            2.39462840192536       -1.12184087505258       -2.01916205728758
H            3.76376135219463       -0.08629933482307       -1.62333447527288
H            1.48489873815333        2.31122563593073       -0.85713720702286
H            2.07320225200597        4.50283718956887        0.05087835194091
H            3.58656212579103        4.66631876290332        1.98300570948422
H            4.50223537519822        2.62478364847918        2.98236557144307
H            3.54787697155505       -0.28034530253492        4.81184057411882
H            5.10303639051118       -0.02298331295599        6.71429432985983
H           11.40724824121278        1.96469676989494        6.26901591155627
H           13.68054631921706        2.59549650942075        6.99069323777213
H           14.28415922171928        2.47955731644035        9.37172003035822
H           12.62476954465394        1.73649881285168       11.02729595762003
H           10.35596175967972        1.11186620243021       10.29455734769420
H            8.19079511194208        1.14281075761887        4.03924728091050
H            6.63936386745711        0.87853286043937        2.13188518616863
H            5.01602323885345       -2.13302215611391        3.17730183977997
H            4.52393028549824       -4.39979940983868        2.38718683146585
H            2.99204157106232       -4.72186302323376        0.48978195257419
H            1.97333467824634       -2.78540074499598       -0.59914280052500
