102
 energy: -21.388290494563 gnorm: 0.000504092458 xtb: 6.5.0 (97a52f5)
C            1.67237255302098       -2.38849744231738       -0.80367262837212
C            2.84510526941436       -1.95577634375188        0.10250380986004
C            4.18344003301137       -2.14447124959944       -0.63492114581476
C            2.69757502785626       -0.46496926902066        0.43779476812050
C            2.44456883151928        0.46139346136387       -0.56272873567181
C            2.38478709725628        1.81458031760629       -0.29532294773632
C            2.59028955753399        2.27186932525428        0.98806359936604
C            2.85788829223067        1.37394993774428        1.99264391158602
C            2.91755651396840        0.00549541591896        1.73722953062674
N            3.29020504233004       -0.88079861997731        2.79075664264031
C            4.31000602047538       -0.41080046104133        3.70017413645157
C            4.08307875652958       -0.22133194051462        5.06830363016742
C            5.06075522970170        0.30932322996217        5.88068385214244
C            6.28672181097872        0.66500696737119        5.32376484585004
C            6.51779566931936        0.47059830201164        3.95870277411613
C            5.54402638436134       -0.06294545814975        3.15763429877105
C            7.90313213198502        0.98826897925971        3.57488920714316
C            8.42628563758573        1.50398037466778        4.92169986404521
C            9.62591858070955        2.10200001017960        5.21853674291389
C            9.88487941430784        2.50451177748275        6.52919769725863
N           11.14365496298329        3.13800913912907        6.85101054931823
C           12.30509094738696        2.33767790831290        7.02696885850886
C           12.20617344884531        0.95209778572459        6.91515683866485
C           13.30316162660465        0.14278629808407        7.08616122724467
C           14.52582292575301        0.70740260592667        7.37603816908746
C           14.63943729233409        2.07814724840032        7.49086006231371
C           13.54636210194469        2.91445963862532        7.31986888928621
C           13.72306515732276        4.43316122739040        7.45620740597060
C           14.21816021468689        4.74243725139681        8.88267321104561
C           14.76590047438437        4.89760323669554        6.41930814559096
C           12.41971946917771        5.20733809080167        7.21518742490493
C           12.42352131810967        6.59296510940576        7.27420534864350
C           11.27762675334044        7.32901537738857        7.05031084347536
C           10.09492770583192        6.68489635950335        6.76037940143296
C           10.06694283243612        5.31249662460669        6.70100580191961
C           11.21473671427210        4.55552139161294        6.92816825925500
C            8.91819001919673        2.29282130550414        7.51957321524138
C            7.71550022456483        1.69352775112905        7.22578783327709
C            7.46518910262809        1.29339655940266        5.91771865856186
C            8.78107289223328       -0.15904878297327        3.06474328203989
C            9.51814797107032       -0.91497255813870        3.96754880654926
C           10.29545963578144       -1.97491382289407        3.55020570138138
C           10.34090555758869       -2.31024876754464        2.21482166271298
C            9.59819157610443       -1.58318395220367        1.30789726020553
C            8.82562976033203       -0.52670875255252        1.72972623018601
S            7.89375696028963        0.32031632816200        0.45964521334211
O            8.79204598250459        0.46747902872012       -0.75176290652225
O            6.53338668431323       -0.32956830820249        0.33708289026800
C            7.71407300244659        1.93604681634383        1.20534880589218
C            7.51828071107496        2.98316708016573        0.33586961707718
C            7.35155806810018        4.26589414477647        0.81494893830213
C            7.37566031451569        4.48932850270221        2.17410127155271
C            7.57187510003772        3.43538514795440        3.04159511891539
C            7.76011203569090        2.14056977252418        2.57509038278891
C            3.08306971120664       -2.28312662616503        2.63161631903341
C            3.16312217817701       -3.12106787080546        3.74116856711567
C            3.01564121592448       -4.48116017854692        3.61519120992779
C            2.80063085868410       -5.02982446865299        2.36980325328158
C            2.73264132082761       -4.21230961100202        1.25947313305999
C            2.85899326373866       -2.83524976928235        1.36354270279075
H            1.63273833076192       -1.80054598996383       -1.71838357229655
H            0.72397617650896       -2.26493260503361       -0.28227660772191
H            1.75940075655171       -3.43066999754558       -1.10411670870638
H            4.20662738428811       -1.56940252801416       -1.55934437763391
H            4.35443366516554       -3.19141856405529       -0.88095111173709
H            5.01107947228282       -1.80126988672397       -0.01428887084254
H            2.32217679298208        0.12555113503693       -1.57712282095036
H            2.19023828510954        2.51402100191950       -1.09183037400290
H            2.55443080351511        3.32793616927620        1.20002097309675
H            3.04070253271286        1.72038754783950        2.99474056745950
H            3.11732900368731       -0.47009025464994        5.47126007418287
H            4.88502524595008        0.46859703861952        6.92994438125800
H            5.71643937025889       -0.19752692435081        2.10710155365738
H           10.35953566109971        2.26342958736940        4.45077346994514
H           11.24947944369225        0.51568658697242        6.69061693224716
H           13.20741981346616       -0.92682691018497        6.99465849084495
H           15.39128860335976        0.07994717845585        7.51302083703546
H           15.59952030053833        2.50662675393055        7.71982977491578
H           15.15641741467639        4.23307013085485        9.09650517313339
H           13.48324499630201        4.41592312068374        9.61757149422657
H           14.38235476422288        5.80962629297562        9.02305406798566
H           15.71961770072583        4.39169575253960        6.55986587138752
H           14.94881883856279        5.96845677838151        6.49059333146476
H           14.41724923336349        4.68269578531340        5.40982748990367
H           13.34117062851104        7.10798216148801        7.49883038489247
H           11.30828268350500        8.40516995598037        7.09989658370835
H            9.19716612420460        7.25365434514542        6.58110034887977
H            9.14680041279163        4.80522090148709        6.47205598127282
H            9.13759009798547        2.60963036223559        8.52389529120818
H            6.97226623509438        1.53270506125768        7.98668627464774
H            9.47511376560275       -0.66748598645024        5.01366246560085
H           10.86543796343524       -2.54112473822938        4.26853563928498
H           10.94692633379746       -3.13648397844031        1.88103622621945
H            9.61534342342073       -1.82984995823351        0.25816071989771
H            7.49898057359079        2.78421964131300       -0.72389369591372
H            7.19873566441130        5.08473875306670        0.13123400555039
H            7.23770332742784        5.48624777261620        2.55955716891863
H            7.57207112471584        3.61363811643378        4.10267788491229
H            3.34905618932169       -2.68754274083717        4.70705369406727
H            3.07690112720912       -5.11603047026894        4.48396636790953
H            2.69633171980140       -6.09706647795680        2.26180336831906
H            2.60238206867067       -4.66088149553663        0.29070979487279
