92
 energy: -19.495506609146 gnorm: 0.000824902327 xtb: 6.5.0 (97a52f5)
C            0.53433402469043       -1.54460649244895        4.21092025737822
C            2.05173417007969       -1.79800948972430        4.31162899776991
C            2.34078230197741       -2.87790339624756        5.37411340866096
C            2.55098784661080       -2.30713419481907        2.95301145385001
C            2.03533027288084       -3.48557608406947        2.43393076785775
C            2.47044400794436       -3.99607444430605        1.22780059190997
C            3.44271340889796       -3.33041362909821        0.51440079298504
C            3.96508570755621       -2.15928796838630        1.00853352026054
C            3.52874480037570       -1.62408565587876        2.21958885826590
N            4.09347977161813       -0.40780271607651        2.69536239988395
C            5.10967037544368        0.25917113404647        1.91482405002106
C            4.79427788597285        0.87560667116026        0.70009883502620
C            5.77257000991500        1.47475358169572       -0.04381730770416
C            7.10212188869583        1.49603957800454        0.38792477568010
C            7.43438583159564        0.90012565054822        1.62257256244067
C            6.42359354266530        0.28390042381344        2.35623369697817
C            8.81622011436156        0.93403709219628        2.08702887505765
C            9.19456278183918        0.40867460814015        3.32014426317731
C           10.51247507456230        0.42627513588935        3.75055764410931
N           10.86546620733209       -0.12749798151721        5.03698175689627
C           11.29192617447777        0.73842297441691        6.08250373958759
C           11.35498238913669        2.11285603526162        5.85712497996435
C           11.76396530126215        2.98127560691513        6.84065692925205
C           12.11623529177552        2.49024538939123        8.07834820121147
C           12.04772705819154        1.13363881857731        8.32212176539209
C           11.63441570962563        0.23947252107486        7.34531972539869
C           11.54798700258387       -1.25579722888695        7.67855830552304
C           12.95205953470238       -1.74905312364249        8.08149992864139
C           10.56361271648520       -1.43870264356099        8.85164185698952
C           11.05665101199339       -2.10013892135392        6.49526594023930
C           10.92100766616640       -3.47244088967231        6.64575162640501
C           10.50115384195323       -4.27635592427243        5.60549783920581
C           10.21252832476897       -3.71504045982059        4.38128899007721
C           10.33979465104730       -2.35754287373015        4.20996157812830
C           10.75082875645376       -1.52932184679623        5.25369941975048
C           11.48530609807950        0.99040314979246        2.91960171661521
C           11.13494074290026        1.52649668805813        1.71166764428808
C            9.80808249176060        1.51723216985697        1.27117159711684
C            9.47320853563474        2.11202621399028       -0.01013779142395
N           10.45172253397111        2.63927087219799       -0.72424815843856
C           10.07807019503269        3.18041072864036       -1.89805454328807
C           11.05578286072609        3.76038654148875       -2.73300069235761
C           10.72081962860435        4.32456888877445       -3.92856734117202
C            9.38998432870377        4.33730049636049       -4.34999264950562
C            8.41830543787378        3.78388148723132       -3.56913293347896
C            8.72714262997639        3.18998476023424       -2.32752669491784
N            7.73840328597594        2.64992886681127       -1.59212423891937
C            8.11757601387950        2.11429397241568       -0.44548014095744
C            3.69590229759495        0.13924836816989        3.94681166262927
C            4.25950516597818        1.33677700294908        4.38535945882139
C            3.90135159251465        1.89753770289762        5.58783987510737
C            2.96383748965693        1.27058152194349        6.37857932694035
C            2.38968057373545        0.08909811867191        5.95490744521068
C            2.73529424494100       -0.49420087013675        4.74467046795852
H           -0.00200921967547       -2.44928136205224        3.92986416184902
H            0.32685480360686       -0.78377524881774        3.45955782557953
H            0.12502352839832       -1.20031172717844        5.15942532391422
H            1.85694723382652       -3.82103720994023        5.12484939152692
H            1.98373971597044       -2.57492657725877        6.35701309668495
H            3.41244112325097       -3.05958029831678        5.44710425907025
H            1.27992079992180       -4.01794926443752        2.98520584223705
H            2.05445564615678       -4.91463353322137        0.84701406063910
H            3.79168633688022       -3.72591973419465       -0.42562324961078
H            4.73014847653813       -1.64374249263176        0.45650751769034
H            3.77269102224805        0.86517039954850        0.36247546867238
H            5.53350119305995        1.93970150267224       -0.98423402082125
H            6.64464617536761       -0.20519349946977        3.28489315245366
H            8.46295038935578       -0.01901367444736        3.97784144556088
H           11.07034109379454        2.49677102776707        4.89409380148688
H           11.80839612697228        4.04029063854376        6.64473500372213
H           12.43997539661553        3.16384622881185        8.85511807915192
H           12.31869792252293        0.76249959272252        9.29515932871316
H           13.33826035220093       -1.19509408611591        8.93552268612129
H           13.64978655452134       -1.62107210537033        7.25472740075167
H           12.94051985328396       -2.80395889378687        8.35104774765547
H           10.88032974573826       -0.87593591233370        9.72838273679912
H           10.48258049451920       -2.48439513435583        9.14418590707433
H            9.57037782328237       -1.09062259163703        8.56979396329077
H           11.15182618854781       -3.92358193867862        7.59504183741423
H           10.40358663747748       -5.34016764269016        5.74901930945482
H            9.88935270334099       -4.33707888515383        3.56233538537311
H           10.12379825366356       -1.92065001784207        3.25161296763727
H           12.50962633582172        0.99536067708561        3.24921976450174
H           11.88120261882664        1.96850631672712        1.07494550894050
H           12.07907699234926        3.74639344086309       -2.40090851206921
H           11.48357559820058        4.76269411456332       -4.55120591969819
H            9.13236062800834        4.78716631144339       -5.29459013384637
H            7.39043326987744        3.78894889179094       -3.88709695841512
H            4.98533934413770        1.82974725144979        3.76386882336876
H            4.35070668405300        2.82298024265578        5.90986130961808
H            2.67718195967330        1.70302341887235        7.32335911857659
H            1.65398859410310       -0.38811416309227        6.57870153238142
