63
 energy: -13.569875777653 gnorm: 0.000639450145 xtb: 6.5.0 (97a52f5)
C           -1.18163801327128       -0.86059104299567        2.30590900828431
C            0.02126063224865       -1.74276286920919        1.91543266056508
C           -0.45531640522517       -3.16764360016590        1.56886545079942
C            0.68611933354993       -1.13648814884891        0.67244694376240
C           -0.04820852541379       -0.99685720294870       -0.49581477094836
C            0.51188861344026       -0.47427414349660       -1.64372854360326
C            1.83217985604136       -0.08174351027831       -1.64350081939341
C            2.57802868766164       -0.20952315653063       -0.49662079867257
C            2.02499010147705       -0.72669556897652        0.67382472025841
N            2.83117004087273       -0.84171253869830        1.83967628525767
C            4.20658898562859       -0.40013513677019        1.80306244937128
C            4.51945977310875        0.96162883803041        1.75700676946483
C            5.82391413937232        1.36771582649589        1.72285902862042
C            6.87282968967749        0.44349464844692        1.73650653308186
C            6.57784592658958       -0.93552587532919        1.78523482296888
C            5.24032424700177       -1.32457871509997        1.81529414707321
C            7.67031188139548       -1.90370210395479        1.80814982147986
C            7.44642162546267       -3.28401853570387        1.85896442800095
C            8.49138082188298       -4.17503159618718        1.88506606612598
C            9.79752358796369       -3.71668336825027        1.86145379718483
C           10.04550799366141       -2.36912977328707        1.81084652038893
C            9.00175440979634       -1.44313102184203        1.78259131805675
C            9.30877856391221       -0.02208753218267        1.72600869381616
N           10.57841073343761        0.33694397863080        1.69581814123677
C           10.79793940747337        1.66357238973971        1.64071616791035
C           12.12418002054266        2.14231291100544        1.60176293815663
C           12.39228015127925        3.47777548316011        1.54249833299833
C           11.34685664225625        4.40295648951185        1.52078280166331
C           10.05260253492063        3.97615067661487        1.55769938731819
C            9.73700571629218        2.60233480364290        1.61715060033873
N            8.44646161720742        2.22447566098701        1.64743658925266
C            8.24345342655269        0.92036194139792        1.70249050570148
C            2.30037310098309       -1.38666137162389        3.04137778071753
C            3.10785169737895       -1.46997627745837        4.17471027540725
C            2.63098752771413       -1.98530057904465        5.35581338891577
C            1.32851946533780       -2.42757000221086        5.42825450745898
C            0.51385254150785       -2.34543794976790        4.31739133757962
C            0.97340164689499       -1.82733376261281        3.11573850580147
H           -1.90226320665031       -0.78814222008574        1.49292265076533
H           -0.84819048966046        0.14740261335514        2.55014946712432
H           -1.70383226641104       -1.26108080193788        3.17332254843136
H           -1.15504937708869       -3.16105922774219        0.73468022998471
H           -0.95588291345710       -3.63619250073821        2.41469803945979
H            0.39242937976037       -3.79322305768196        1.29156568532255
H           -1.07881940019578       -1.30589504629289       -0.51023645500115
H           -0.08073748271048       -0.37674086384879       -2.53866504882106
H            2.27757684467814        0.32285648791420       -2.53772341822391
H            3.61090871039312        0.08935856470186       -0.49666720944170
H            3.71720872463774        1.67862695223076        1.75361907784254
H            6.06704949174205        2.41520421780260        1.68760970824422
H            4.97582580095465       -2.36353197182520        1.84714014549804
H            6.44081494876789       -3.66234982266290        1.87885983016898
H            8.29593380355887       -5.23428931509971        1.92432085869448
H           10.61598456232505       -4.41752742461711        1.88277844807959
H           11.05644898807516       -2.00087795500260        1.79203443034775
H           12.92295398706390        1.42177211190322        1.61963600596441
H           13.41307639192373        3.82197589304100        1.51368609293870
H           11.56595852580825        5.45714315686356        1.47604108193970
H            9.24105098820498        4.68229755823827        1.53937055823352
H            4.12225766548420       -1.11788612052688        4.11839403920146
H            3.27179208950698       -2.04259916736186        6.22056185014607
H            0.94617847514337       -2.83356376155248        6.35054573102799
H           -0.50303643864668       -2.69024656294530        4.38759985953866
