104
 energy: -22.168246474532 gnorm: 0.000763980739 xtb: 6.5.0 (97a52f5)
C            1.17697094691092        0.14681339619152        0.29316216875554
C            0.34846287573078        1.17439356391623        0.02870479370629
C           -1.09946468401570        1.15920443684938        0.15468802540260
C           -1.82460751632935        2.13807504793263       -0.52320369738419
C           -3.21028914551477        2.19938822429803       -0.50299728329010
C           -3.90360292985149        3.28330632093882       -1.24221726254460
C           -3.68820234009399        3.46420420102409       -2.60831004701428
C           -4.33292643305098        4.46921437705009       -3.29534841077481
C           -5.20129776712337        5.31476992255940       -2.63359896910625
C           -5.42120975691645        5.15558887170621       -1.27979036777814
C           -4.77737129916738        4.15304597948175       -0.58892329502936
C           -3.93119931585258        1.22066490908462        0.22689427916096
C           -5.37931304168076        1.21515258543455        0.20657382863475
C           -6.17288093628717        0.45802263041770        0.98687979662042
C           -7.62069766645858        0.44242364688362        0.93638931071502
C           -8.33496495456462       -0.31233323132366        1.87361432377656
C           -9.70604042229355       -0.35668868641982        1.85021179205986
C          -10.42815828222158        0.34517920680221        0.88519907044489
N          -11.85695862128762        0.29282216440819        0.85758181703468
C          -12.59891506323577        0.18539437776000        2.08233425282214
C          -13.74517811684761       -0.60219474228171        2.15372179874874
C          -14.45634272947624       -0.70234387151977        3.32836529763022
C          -14.03705803061291       -0.01750285798678        4.45242828007787
C          -12.90289645265618        0.76914789498650        4.39713433233173
C          -12.19011425324797        0.87072383846957        3.22370937640469
C          -12.55771729029689        0.33549743357455       -0.39509049493690
C          -13.76630644698779        1.01736369624042       -0.51203262554627
C          -14.44380641096155        1.04510390396927       -1.71032284044987
C          -13.92764049078935        0.39278826984894       -2.81328768849308
C          -12.72974264917236       -0.28783370318268       -2.71342290053277
C          -12.05056137662752       -0.31698350800847       -1.51621852276771
C           -9.72090585827368        1.09784673490444       -0.05210240783677
C           -8.34963125723776        1.14915964696633       -0.02733121757139
C           -3.20921274133161        0.25656188696210        0.92590513862231
C           -1.82215190339661        0.20748827297980        0.92440572281524
C           -1.15662470916637       -0.82704375743093        1.75598619292323
C           -1.25273782581771       -2.17810395925734        1.42212529838568
C           -0.60224198294168       -3.13395190585848        2.17059521990420
C            0.14838189238940       -2.76215402491759        3.26861790666971
C            0.24255882315037       -1.43049461676350        3.62216103946374
C           -0.40587452382536       -0.47066903101177        2.87701600174187
C            2.62055043931902        0.16670613182769        0.19715071652653
C            3.34843990009755       -0.93943448597035        0.64900634437369
C            4.71894748566096       -0.95395418432231        0.59581356229684
C            5.42715758954903        0.13484983850426        0.08717499569204
N            6.85524317968179        0.12202362465928        0.04244858643363
C            7.56374614513728       -1.11855595757951       -0.10811776418706
C            8.73319888501176       -1.35955897271604        0.60871256403098
C            9.41181261419544       -2.54900484701470        0.46643175411381
C            8.93667125540573       -3.51831882111994       -0.39553149852857
C            7.77993516315154       -3.29285772258843       -1.11632070489867
C            7.09960658849338       -2.10419694966043       -0.97573052925283
C            7.59908332702465        1.34373595172991        0.17219074351532
C            8.75878561073879        1.54981183009711       -0.57074817527443
C            9.47822331831071        2.71647028914100       -0.44112816787224
C            9.05420579693687        3.69805700540967        0.43344290140286
C            7.90775662854542        3.50730505750513        1.18006207335182
C            7.18709630679803        2.34117109438468        1.05266540649285
C            4.70440974493564        1.23662717337264       -0.37126390109662
C            3.33294575348005        1.25504068358464       -0.31788345985682
H            0.74762825956028       -0.78321145915321        0.61205610232108
H            0.77841416628189        2.09150323873171       -0.33120072386747
H           -1.28956615721028        2.87734683360543       -1.09220213049983
H           -3.01546004566352        2.79921456571743       -3.12230801058466
H           -4.15964895650146        4.59530425666608       -4.35172036475877
H           -5.70526046686091        6.10021801443000       -3.17303014460433
H           -6.09609319865450        5.81780077099289       -0.76221185586259
H           -4.93867707136101        4.03252880187344        0.46877351986508
H           -5.84452181769481        1.87866453747258       -0.49761002732972
H           -5.71725223783354       -0.18013895586759        1.72137740582762
H           -7.79249774435894       -0.86476494256328        2.62175667737271
H          -10.24315846747663       -0.94948033358684        2.56973105101323
H          -14.06143463234817       -1.13948690637176        1.27669617595863
H          -15.34082827746098       -1.31688435847796        3.37104784558921
H          -14.59449420862906       -0.09642409810419        5.37152267486838
H          -12.57607049012684        1.30539393300386        5.27315295329105
H          -11.31141836603170        1.48964372727111        3.17087315966189
H          -14.15924648554710        1.52906389793125        0.34921818251851
H          -15.37830528412006        1.57666101519892       -1.78760878811674
H          -14.45941070047419        0.41369657235917       -3.75057932430426
H          -12.32710700257076       -0.79868797527310       -3.57296043406304
H          -11.12316805983200       -0.85567457231821       -1.42850369081192
H          -10.27195359544232        1.65150890778338       -0.79211171758378
H           -7.83219983464254        1.73571293211119       -0.76493534547109
H           -3.73355152821118       -0.48991007541607        1.49263330400796
H           -1.83199488895052       -2.46172503567509        0.56007079445170
H           -0.67764842655797       -4.17394145688010        1.89740580568570
H            0.65874996248521       -3.51171733458789        3.85127061442234
H            0.82768009745493       -1.14114375990385        4.47986518885667
H           -0.32853325999502        0.56993753315929        3.14183904276437
H            2.81610451811354       -1.78198726172342        1.05665084313137
H            5.26696670177808       -1.80274544596262        0.96548848033506
H            9.09307707815377       -0.60309186825549        1.28410999184421
H           10.31413301179848       -2.72439192420080        1.02940284744637
H            9.46823998027764       -4.44947890414400       -0.50583130481853
H            7.40979255564574       -4.04783498078978       -1.79068011282352
H            6.20366706717117       -1.91769057988670       -1.54191966563239
H            9.07978336633892        0.78351279230639       -1.25461604499050
H           10.37327853268221        2.86404539149418       -1.02324047197699
H            9.61803200319013        4.61110218095114        0.53431973851168
H            7.57765782876097        4.27158072917491        1.86466909742055
H            6.30065869224069        2.18107892580714        1.64131372438047
H            5.24211280500970        2.07313996093963       -0.78217761422090
H            2.80146953255384        2.11511842525619       -0.68385993030073
