70
 energy: -14.212658202302 gnorm: 0.000919191947 xtb: 6.5.0 (97a52f5)
C            0.89673453455908       -0.17043072294997        0.04158011898900
C            2.43625492415279       -0.21997416659400       -0.02092432341371
C            2.90153077738110       -0.45205471459825       -1.47264534826378
C            2.98750344039144        1.13110452964092        0.45493356794094
C            2.65350802247316        2.28796167608930       -0.23407249213064
C            3.14633543722002        3.52151657394490        0.14182511101570
C            3.99354426312810        3.61918061503078        1.22405925525511
C            4.33437260388415        2.48648459255756        1.92392652012495
C            3.83851558837180        1.23484401553692        1.56188212040155
N            4.21681367520056        0.08635231909184        2.30950321239857
C            5.09706773515285        0.23537416943625        3.44600787393914
C            4.63790256869847        0.78302451304240        4.64245710533419
C            5.49061469595310        0.93262519964085        5.71482036067589
C            6.80743942166281        0.53860198149790        5.61382807016707
C            7.28962228139525       -0.01794625054213        4.43057440847110
N            8.66577141370845       -0.44384930984683        4.31543583871042
C            9.09289831230125       -1.62393274259768        4.98370942878538
C            8.17740336431671       -2.35989323059498        5.73458123019152
C            8.55273691706750       -3.50540309250880        6.39535798112002
C            9.85747474086278       -3.94060098455299        6.31517679059587
C           10.77393056020798       -3.22782675325398        5.56836803293386
C           10.41661295033176       -2.07061814151233        4.89137851332455
C           11.46746067131736       -1.32718903135476        4.05536735594792
C           12.61838656347397       -0.89613651344816        4.98639008522889
C           11.99425451433523       -2.28664277109318        2.96917504325602
C           10.90362304603138       -0.07675056066651        3.36670591173108
C           11.73436622574483        0.70128811671856        2.57363583277400
C           11.27368885628654        1.83863762173611        1.94151635885694
C            9.95953485824836        2.22279425036110        2.09568650943231
C            9.11845756204682        1.46609640754668        2.87592848134191
C            9.56679733304708        0.31173197660215        3.51624318610628
C            6.42346172025571       -0.16180156827206        3.35624049891684
C            3.76502565318223       -1.20992419409524        1.93966043699109
C            4.15925165054353       -2.31713938062317        2.68937676625066
C            3.74276426757270       -3.58555479540127        2.36295189598076
C            2.91624390703736       -3.77178059456802        1.27640192545018
C            2.51256528985692       -2.68479168789346        0.52742409539835
C            2.92102173712203       -1.39596811032193        0.83811355687921
H            0.49964325622365        0.63990614554224       -0.56789544245358
H            0.56436361071589       -0.01362906843590        1.06715460866693
H            0.45456016027046       -1.09881474280536       -0.31643267221100
H            2.56430541694257        0.34691347749190       -2.13130352918619
H            2.51568052750444       -1.38988209431545       -1.86934084596806
H            3.98953122830454       -0.48932911957353       -1.51972560625297
H            1.99711018633681        2.22381460234687       -1.08449951440787
H            2.87291228147930        4.40464751362808       -0.41247082779187
H            4.38753809404511        4.57846201678267        1.51845304699435
H            5.00068882168406        2.55891589917249        2.76491106122968
H            3.60770183187912        1.08589413076619        4.71217876059987
H            5.12662347802763        1.35903073054715        6.63525099934555
H            7.48148430949887        0.65399508997019        6.44465620204677
H            7.15826817201475       -2.02138413477468        5.79071631670072
H            7.83050470927399       -4.05953440200944        6.97281708705333
H           10.16113895723740       -4.83692734880307        6.83151159468192
H           11.78873746611855       -3.58094065847103        5.50842969340165
H           13.07078073650095       -1.75344160865227        5.48280192039257
H           12.24960837347851       -0.21816863195385        5.75570999710869
H           13.40479257177558       -0.38271807332519        4.43490122306356
H           12.42823444566259       -3.18410549326285        3.40749816804049
H           12.76266394739808       -1.81395741206842        2.35917321287415
H           11.18298231665629       -2.59348889311132        2.30965678762789
H           12.76351048557701        0.41293381901711        2.44764986782821
H           11.94007494663941        2.42531928056595        1.33030474074850
H            9.59335221339632        3.11068902961601        1.60627390910808
H            8.09269608419455        1.76494618496893        2.99828496958368
H            6.78597771175091       -0.58644384403339        2.43896300340709
H            4.80240823435413       -2.16921889689559        3.53849584858242
H            4.06087642266240       -4.42988969761207        2.95277004860782
H            2.58497132779254       -4.76309587140685        1.01284745899135
H            1.86406559001581       -2.84261717002423       -0.31678340557457
