37
 energy: -7.909678151157 gnorm: 0.000955649734 xtb: 6.5.0 (97a52f5)
C            1.17800223420286        0.63397502003319       -0.32693661647066
C            2.65443798228726        0.74133461749676       -0.21607902954547
C            3.28019130635819        0.78394362314433        1.00371390285099
C            2.51365617352292        0.71301256209382        2.27941524172583
C            4.71091038659133        0.90247025195585        1.04539896974128
C            5.43493349623503        0.96503272268636        2.24055876712677
C            6.81021602725022        1.07573900534453        2.23351730789272
C            7.49935854438390        1.12713743630545        1.04299995132529
C            6.82496631764885        1.06963946487462       -0.17452285296902
C            5.41896096013342        0.95772573446559       -0.17015062962527
C            4.70170160397706        0.89528751194323       -1.40081229154281
C            5.40027172678574        0.93987272473476       -2.58691602101073
C            6.80730333986456        1.04741297583462       -2.64596855964478
N            7.39153397914041        1.07485625642737       -3.84286026279107
C            8.72496621847865        1.18042852103019       -3.81533651022077
C            9.43756205271514        1.21713307624496       -5.03514478206130
C           10.79467486196121        1.32912102221635       -5.05879187375643
C           11.51459369534565        1.41145502609480       -3.86434631846677
C           10.86326271515633        1.37823972577991       -2.66765034007163
C            9.45892017468194        1.26097890978939       -2.59995618375827
N            8.86426133294882        1.22803158719979       -1.39612024839322
C            7.54749741782841        1.11958310154305       -1.42732179026339
O            3.32355436290126        0.78999308903125       -1.41693129193267
H            0.68115344443819        1.45388200777687        0.19176339576477
H            0.82017449570080       -0.31218981784704        0.07921737404577
H            0.88328323401357        0.67780860543611       -1.37526990610729
H            1.44781970956610        0.56077976111210        2.11464399927544
H            2.62874204689286        1.63487869524675        2.85060987551963
H            2.86400187090457       -0.11585117372316        2.89559960209560
H            4.91227855744606        0.92834339770945        3.17997615460337
H            7.34926162960654        1.12178708740530        3.16547582747664
H            8.57191082966101        1.21239603365557        1.03364152570423
H            4.85138013088245        0.88898861295210       -3.50776055480764
H            8.87610991156312        1.15308103384450       -5.95063977381692
H           11.31744228687217        1.35486588174932       -6.00068706532239
H           12.58800085461569        1.50201859428569       -3.89200901863246
H           11.41099408743741        1.44109731412608       -1.74376997393762
