116
 energy: -24.450573948931 gnorm: 0.000625210342 xtb: 6.5.0 (97a52f5)
C            1.02254778035210       -0.05942495470733        0.80188343088900
C            2.47407174461279        0.18018028565912        0.72101918654984
N            3.06483053146267        1.38041939532643        0.73378442222173
C            4.45298665126466        1.29007162773548        0.65051242923951
C            5.31434178352835        2.40396600600868        0.67189777027604
C            6.77544692391528        2.26198826850289        0.59390685700710
C            7.61946045707718        3.02387472863764        1.40937486380723
C            8.98142240064225        2.88435365952183        1.34515146719060
C            9.57553017798044        1.96440816850363        0.47310385505178
C           11.03683623679482        1.80184779245275        0.39314413913334
C           11.85480527081144        1.93197581767409        1.51732325823815
C           13.31707805113031        2.09629777616440        1.38511681023430
C           14.18549631336647        1.46820459401571        2.28174019815670
C           15.54870173680071        1.62179776208898        2.17144523855269
C           16.07878975931396        2.40962869434528        1.16883122019158
C           15.23885502541946        3.04849010225875        0.27830641399835
C           13.87518694182267        2.89861634179378        0.38582381679073
C           11.29628169735700        1.89173667133067        2.88531046897354
C           11.75332043826871        2.77615854282406        3.86586022826344
C           11.23659388207938        2.74523885286302        5.14102207174653
C           10.25817852220528        1.82793235756753        5.47033383943101
C            9.80147031477313        0.93588385905983        4.52019801026541
C           10.31598719968925        0.96208792403924        3.24416942581391
C           11.61643161741651        1.48027649852691       -0.93029312659408
C           12.58618141142684        0.48470639317699       -1.07322026938387
C           13.11573069063854        0.18725856024107       -2.30817649172545
C           12.68645435872405        0.87041917602690       -3.42879233122275
C           11.72244445893246        1.85213085981293       -3.31072443212296
C           11.19062745584364        2.15370622806954       -2.07756292006429
C            8.73102921399300        1.21425711055788       -0.35326960952797
C            7.36895857505470        1.35755161730293       -0.29370637753049
C            4.68853487718568        3.66237436738239        0.79118174028774
C            5.23316611879895        4.98539173492517        0.80228162459794
C            4.20300205204697        5.87574213072432        0.93168342993739
C            2.97720829234269        5.14590408483295        0.99585578533398
C            1.64810265018972        5.60511344819278        1.13428928418109
C            1.29071143154073        6.90601831269335        1.26557897490599
C           -0.05542733867342        7.38180534610122        1.42025512503613
C           -0.29354932604561        8.75368193518300        1.58706381136087
C           -1.56555907016167        9.23816630958896        1.73968469431336
C           -2.67522593934724        8.38190732655343        1.72316338646071
C           -4.04668105832009        8.88471717150190        1.89471072915641
C           -4.44554951511144       10.12746363348707        1.39317395054475
C           -5.69477590116367       10.77030747950192        1.84906972796265
C           -6.50865945431996       11.46089532516715        0.94692063759699
C           -7.67209025026255       12.06626621546457        1.36385005422879
C           -8.04936176413584       12.00341240809094        2.69076684014843
C           -7.25500453214678       11.33570892362288        3.60173671869669
C           -6.09050508823739       10.72971326949417        3.18925190780071
C           -3.65081020906993       10.83348435022694        0.36711748173406
C           -3.47052771872543       12.21771619845129        0.43378635616398
C           -2.73249286544147       12.88021758641108       -0.52029111716832
C           -2.16323357402069       12.18088619421155       -1.56634807760382
C           -2.33990626482937       10.81438796431461       -1.65888352410743
C           -3.07805972732691       10.14768511316719       -0.70813882999804
C           -5.00723174318737        8.01853837926375        2.61494748966361
C           -6.30373362433632        7.81909505273356        2.13437792063915
C           -7.18922698989435        7.00917314937207        2.80812693992283
C           -6.80092772447860        6.37504452920201        3.97161783791647
C           -5.52107329463715        6.55170068023779        4.45908640848375
C           -4.63248342644183        7.36167875578113        3.78922873536942
C           -2.43500135729114        7.00988984724169        1.56944180356178
C           -1.16372516232595        6.52185893338651        1.41910440550093
N            3.32872492035639        3.83443613625033        0.89756740646695
B            2.30540647453493        2.69919972070532        0.87401313887859
F            1.45652069558250        2.86251830480458       -0.21848829904839
F            1.58987750245120        2.69566141149896        2.06957690903149
C            4.72117494180550       -0.10040687179042        0.59949975404872
C            3.51551954207362       -0.76906743547132        0.63614567998755
H            0.48975751202802        0.89161712139456        0.84572112589691
H            0.77081102604127       -0.63061180482361        1.69574979360511
H            0.66802194445190       -0.60802231535872       -0.07106809270238
H            7.18217267940665        3.70529175651963        2.11808121742718
H            9.61199365207391        3.48644148152330        1.97550840263149
H           13.77170492281313        0.85112621665975        3.06054126108468
H           16.20370256999482        1.12572531675010        2.86885554373846
H           17.14660516459220        2.52764440259169        1.08287075321683
H           15.65193261009386        3.66572777836377       -0.50265417111935
H           13.22102975673879        3.40301298915136       -0.30381767038728
H           12.51273435348011        3.49336886171816        3.60600573055288
H           11.59475253556316        3.43974077698111        5.88329940789201
H            9.85197783697555        1.80762723740137        6.46841631359154
H            9.03927969402160        0.21877108391877        4.77761174918059
H            9.96417450914196        0.26462013689228        2.50378840257651
H           12.91618962157752       -0.04982989840793       -0.19931720929087
H           13.86667226988389       -0.58026787892735       -2.40033285934082
H           13.10222354410698        0.63639809616733       -4.39518494794456
H           11.38606018863026        2.38387215611288       -4.18571195319972
H           10.44234406530994        2.92158437377855       -1.98217265793287
H            9.16833768348926        0.50933494812226       -1.03897369816506
H            6.73899924589521        0.78803106651644       -0.95454260766199
H            6.27486967216139        5.23604172049559        0.69823383558049
H            4.29560362091796        6.94794342387626        0.96689021098245
H            0.89359461106511        4.84081442287930        1.14518429834398
H            2.07148995340238        7.64534746973604        1.26341140163124
H            0.54369290883409        9.43035730657507        1.59751584298239
H           -1.72494985046993       10.29283070616937        1.88063135893713
H           -6.21682846202377       11.50510780029115       -0.08815514380847
H           -8.29055520727235       12.58941759432513        0.65299932727832
H           -8.96178041034938       12.47651054484214        3.01516127339603
H           -7.54758899078129       11.28843060692135        4.63791242517698
H           -5.46841765324170       10.21564192593307        3.90105800384859
H           -3.91143517287355       12.76061255940475        1.25199316840636
H           -2.59704539133776       13.94710253717714       -0.44993158685213
H           -1.58296208492593       12.70096079701452       -2.31090530509565
H           -1.89859757748509       10.26880491974951       -2.47684177897723
H           -3.22218163110907        9.08374703502420       -0.78303115253726
H           -6.60317941372312        8.31063145436350        1.22495428893126
H           -8.18736048059970        6.86987124614104        2.42628576259960
H           -7.49551576331098        5.74113207190031        4.49813354339623
H           -5.21725074949072        6.05479634476789        5.36587586020200
H           -3.63581857714652        7.50463890017756        4.16986211500938
H           -3.27421826502393        6.33605152787277        1.55892083270508
H           -1.01687499585007        5.46398120703912        1.29626262029479
H            5.69671202239917       -0.55470756511212        0.56950596885139
H            3.38096630026742       -1.83798860050022        0.61889828915973
