71
 energy: -14.630168331706 gnorm: 0.000918721383 xtb: 6.5.0 (97a52f5)
C            1.10089160133728       -0.01415498806250       -0.58124179032554
C            2.52451472761136       -0.32203342166821       -0.35997924470170
N            2.99332581475453       -1.30924317895294        0.41990514767155
C            4.38945942278423       -1.36113710795689        0.42782475793244
C            5.13705576129043       -2.31432707300865        1.14745719631661
C            6.60742467493219       -2.32196660336021        1.13748331344712
C            7.32401782217557       -3.51670742025524        1.00441240245852
C            8.69410885200230       -3.52117234615803        0.98399567369561
C            9.42530053350894       -2.33058177334128        1.08982036322729
C           10.89604338400522       -2.32320234527907        1.06684172223780
C           11.62037181914725       -3.22688398856936        0.27363113060479
C           13.04713779041669       -3.49621254978597        0.53502753107312
C           13.94006664331711       -3.70021144579849       -0.52173492398658
C           15.27048340571280       -3.95769604753428       -0.28379753127803
C           15.74314177298902       -4.02430301297091        1.01215309963839
C           14.87798984404693       -3.83579952783938        2.07193685845315
C           13.54684573048559       -3.57845149542243        1.83898838081807
C           10.98616843049174       -3.92540531072942       -0.86123198025173
C           11.29654908100891       -5.25950828853303       -1.14326305459554
C           10.70758645581060       -5.91317019100530       -2.20095961090341
C            9.80057964201024       -5.25321453568660       -3.00684677616042
C            9.48687101149082       -3.93228568230775       -2.75358111068085
C           10.07368069911164       -3.27393011635678       -1.69795243926575
C           11.59286581611537       -1.32160379455120        1.90046995972164
C           12.71334110528483       -0.63384634846809        1.42414601516200
C           13.35228939699096        0.30199502592592        2.20433562798780
C           12.88779945222901        0.57930050888301        3.47497683331246
C           11.77803231200213       -0.08249287943586        3.96284512347556
C           11.13592107788604       -1.01976550361815        3.18667242046997
C            8.70659067928127       -1.13801495601733        1.24138709997111
C            7.33638117386210       -1.13336279451819        1.25991049411393
C            4.38747103418653       -3.25704809174398        1.87871532564835
C            4.78889271954111       -4.30259994216423        2.74046346680967
C            3.64816292270071       -4.90954340811502        3.23882599682650
C            2.51949119168139       -4.25732876473052        2.70861668656452
C            1.09518612464775       -4.53029572013025        2.96791322374790
N            2.99099904301542       -3.28300612944338        1.91452711013081
B            2.09555492564555       -2.29104500278899        1.17242978396580
F            1.32086383312500       -1.59143752559034        2.09418244498536
F            1.30273246571798       -2.98205735006259        0.25975177137227
C            4.79314057493040       -0.31997511893393       -0.43822065279230
C            3.65434973281418        0.31088374306818       -0.91058350651494
H            0.47769536191973       -0.69519623153360        0.00032401499007
H            0.83623445552578       -0.12691225508912       -1.63282969764972
H            0.86895344423567        1.00562324445513       -0.27309570279462
H            6.78051860545804       -4.43787752488669        0.88634152375622
H            9.22594754745185       -4.45082760696047        0.88187549801749
H           13.57345356273692       -3.64199942806554       -1.53194280295499
H           15.94588577505495       -4.10632476114732       -1.11029139671678
H           16.78588996233166       -4.22448621056168        1.19668245238712
H           15.24627492030466       -3.89063411778295        3.08322879133068
H           12.87227643032262       -3.44026503484448        2.66585028260434
H           11.99749362911602       -5.77571438265508       -0.51034461240068
H           10.95300980496127       -6.94339555098898       -2.40050318288049
H            9.33909532748848       -5.76774125255912       -3.83369782841766
H            8.78020041217576       -3.41720217737939       -3.38338412737781
H            9.83325777138242       -2.24295424136731       -1.50444908220714
H           13.07138614678467       -0.84566254502638        0.43165118846906
H           14.21645177273366        0.82078269149061        1.82283024083596
H           13.38947585000307        1.31276689902503        4.08469277647575
H           11.41479902324905        0.13588739295290        4.95369860102265
H           10.27515785502950       -1.54091681978411        3.56880313219019
H            9.24966065117536       -0.21344139352202        1.33282665525124
H            6.80297352632607       -0.20853945292607        1.39434704350892
H            5.80437290295519       -4.55799355263311        2.99017732997712
H            3.61924874243813       -5.73568869515513        3.92975021377458
H            0.84779714661776       -5.56768664544197        2.74079535040780
H            0.47336362138131       -3.88600801792480        2.34420499336975
H            0.84401017979378       -4.33460168950689        4.01084547812847
H            5.80817346852975       -0.08140999014146       -0.70581117727974
H            3.62712160048705        1.14282185301215       -1.59465029623304
