21
 energy: -3.095354290268 gnorm: 0.000680088878 xtb: 6.5.0 (97a52f5)
C            2.52136425099836       -0.00380772510216       -0.09309329517920
C            1.04664795114517       -0.00307301836186        0.30992647738068
C            0.31131055011374       -1.26658328634139       -0.20482385126809
C           -1.17000571182971       -1.26764049552079        0.21550936123767
C           -1.88451273828313        0.00573475991041       -0.27513994782948
C           -1.16534681647408        1.27135542464656        0.22869543385073
C            0.31640939339681        1.26921691492776       -0.19040954215225
H            3.03834175620254       -0.88948672548553        0.28051769737877
H            3.04169634128055        0.87590314876703        0.28979968073445
H            2.62313881481840        0.00168851447682       -1.17911316888739
H            0.98031515199369       -0.00920301047924        1.41163638989009
H            0.82380586696689       -2.17292904750390        0.14406682659719
H            0.38372187706770       -1.29455214022049       -1.29829565884798
H           -1.23704695542995       -1.32322016663387        1.30951295811046
H           -1.67979912754301       -2.16905296927171       -0.15355557433980
H           -2.93955158372696        0.00600264548345        0.03398550498136
H           -1.90310315012241        0.01147189492770       -1.37246383747220
H           -1.23329058077032        1.31664536955184        1.32311923995201
H           -1.67143160363122        2.17819554306838       -0.13209042860468
H            0.83209329741790        2.16920103905817        0.17011939517840
H            0.39011301640904        1.31026333010282       -1.28338366071075
