50
 energy: -10.852393242874 gnorm: 0.000172437328 xtb: 6.5.0 (97a52f5)
C            1.12233451259029        0.00085192875477       -0.25862653980946
C            0.30921254871058       -0.98782717080828        0.17514655173650
C           -1.14221558895527       -0.99329829097177        0.07415351462910
C           -1.85407185066148       -1.59866166534200        1.07460923189908
C           -3.27177654633234       -1.58130248632186        1.12494206945075
C           -3.96143204298869       -2.20984201770055        2.17838273552547
C           -5.32572974573228       -2.17639534598663        2.23912500088950
C           -6.04934516177426       -1.51282633709674        1.25408156136344
C           -5.40252238317117       -0.89317478878529        0.21775509790041
C           -4.00103508450430       -0.90854614657648        0.11979332696897
C           -3.27887527271768       -0.29311249316753       -0.98133284970759
C           -3.94728222107937        0.35221694610910       -2.03616434146992
C           -3.26494957633214        0.85733763701079       -3.10921319961634
C           -1.88634942423944        0.72017115942178       -3.18327851434801
C           -1.20424545518781        0.10888135863282       -2.16747612218017
C           -1.86597523280805       -0.37543198703524       -1.02612876421202
C            2.57214589178779        0.00871319873818       -0.14781791221943
C            3.34072119884031       -1.18155225527868       -0.30958906287281
C            2.77085402277786       -2.41317761080195       -0.72402785512466
C            3.52250267268582       -3.54067148853588       -0.84841664636848
C            4.89913524420940       -3.51308191864919       -0.58252741848321
C            5.50172748421891       -2.34972548446425       -0.22628148141617
C            4.75239905198425       -1.14946863356072       -0.09990207279600
C            5.38081696517908        0.05586617909637        0.19992262498068
C            4.66302147062719        1.24417531456117        0.29945024367549
C            5.31942577282838        2.47253265270528        0.57814953342307
C            4.61528530186295        3.62755139628050        0.69481291485606
C            3.22034232768773        3.62106565553287        0.54975767421346
C            2.55663262456530        2.46354144229264        0.28192723772762
C            3.24647072594438        1.23273524689105        0.13079052306377
H            0.65508929343228        0.88890044979019       -0.64603305217705
H            0.75277844412148       -1.78876604873377        0.74214074099042
H           -1.32088819655722       -2.07437409824501        1.87827843903438
H           -3.39718677917419       -2.72013759544532        2.94014007394114
H           -5.84319157187630       -2.66304019013709        3.04980764360793
H           -7.12569892799230       -1.48951828906545        1.30769067256980
H           -5.98519156393440       -0.39062327065367       -0.53235861790179
H           -5.01717221263206        0.44948640595849       -2.00935254575914
H           -3.79866929335005        1.34713198697558       -3.90753009172965
H           -1.35544913388979        1.09126818895542       -4.04496279781825
H           -0.14487860944484       -0.04275662409802       -2.26810374137685
H            1.72967555864488       -2.44805841325885       -0.98798491353524
H            3.06151136383747       -4.46335407549322       -1.16148236894926
H            5.47944318476078       -4.41636771785770       -0.67741900032903
H            6.56194996873498       -2.32157706477499       -0.04173697907584
H            6.44634527738157        0.07201086964400        0.34201779892178
H            6.38944343892499        2.47426168219626        0.69617466464205
H            5.12555662873206        4.55342708545228        0.90471526975063
H            2.67255069088301        4.54330750672063        0.65580824670481
H            1.48547020938019        2.48433521711908        0.19600349680341
