16
 energy: -2.388335050614 gnorm: 0.000538996484 xtb: 6.5.0 (97a52f5)
C            0.98508368234219       -0.16532423463538        0.14654065074105
C            2.48664678464874       -0.02941820055881       -0.04851769367336
C            3.09638594515351        1.15680060444080        0.74555036842584
C            4.39942639282774        0.59345103589605        1.32630027519687
C            4.14787277262268       -0.92054445269934        1.36489651034658
O            3.17849090053459       -1.24227805404599        0.35977832711384
H            0.45590784355989        0.73363000474764       -0.17170598477063
H            0.75571666144954       -0.33900053547177        1.19718789266873
H            0.59396210452366       -1.01217868634800       -0.41708273189416
H            2.72058016932251        0.08527192228533       -1.11960707067432
H            2.41094394391950        1.46140814580645        1.54299932216471
H            3.26306893498904        2.03654979240908        0.11250749555945
H            4.62870986350104        1.00187872515907        2.31854832872654
H            5.24974499076053        0.82663301241135        0.67530117999400
H            3.74107831756523       -1.24315731346822        2.33003547666683
H            5.05406069227955       -1.50605176592828        1.16752765340792
