19
 energy: -2.815599961960 gnorm: 0.000405793244 xtb: 6.5.0 (97a52f5)
C            1.00991598458282        0.10310015363029        0.02001675462259
C            2.52991791839504        0.03762216684964       -0.08851923715061
C            3.02859837395575       -1.38709421004920       -0.43862285027996
C            2.68892796700924       -1.74857311435159       -1.89149848634010
C            3.16444472174149       -0.64400670860685       -2.84050909473026
O            2.64894790939270        0.63368366998011       -2.47353652813597
C            3.04135218679353        1.02473541927518       -1.16131384108010
H            0.62621758896261       -0.62034920472025        0.74084824561666
H            0.54991277140390       -0.11085162653633       -0.94446319107353
H            0.67330696421894        1.09501469251202        0.32513354389901
H            2.96254453052714        0.32804722908582        0.88609380249239
H            2.58603551064015       -2.11519185416950        0.25325368985336
H            4.11296928555487       -1.45082470034973       -0.28680168696770
H            1.60683943718564       -1.88267874045110       -2.00139649850477
H            3.13582724367261       -2.71345167190874       -2.16828144464313
H            2.85225524869249       -0.83390399133681       -3.87525328348472
H            4.25800486359035       -0.57279374258256       -2.84678140482902
H            2.64363417051789        2.03161549592408       -0.99088931882470
H            4.13420732316283        1.10198073780550       -1.14689917043943
