18
 energy: -2.757926235554 gnorm: 0.000718818480 xtb: 6.5.0 (97a52f5)
C            0.94997814227284       -0.03591178346422       -0.19414789312311
C            2.45102430527284       -0.13172715037034        0.06924701370144
C            2.99005777765425        1.01988247006422        0.93624712053269
C            4.44855398224977        0.72151705072441        1.24671765286009
S            4.51295768095325       -1.09413751122129        1.46265735881432
O            4.44260018527465       -1.36551962651193        2.94091129111758
O            5.51148558211871       -1.61937902289147        0.46692041428044
C            2.85303194941670       -1.42841354578629        0.77346065725252
H            0.69314002507211        0.89391271043549       -0.70213587856968
H            0.39271351022823       -0.06488780811838        0.74174023610407
H            0.60181241803469       -0.86489991359583       -0.81083303915828
H            2.98881986442225       -0.09056376752676       -0.89537195826659
H            2.40786253111463        1.05177181710495        1.86571937881418
H            2.85689116568322        1.99575499422349        0.45259774207866
H            4.81232471909078        1.22490078635528        2.14352199043629
H            5.10687110159869        0.97881299702568        0.41615252315146
H            2.18448539784157       -1.65443586140227        1.60301335701399
H            2.87610966170070       -2.28884683504479        0.10479203295996
