13
 energy: -2.121362106292 gnorm: 0.000505758376 xtb: 6.5.0 (97a52f5)
C            1.03407053579867       -0.19924075654564        0.07448039767785
C            2.53767723472558       -0.02969768077093       -0.07152331131145
C            3.11949560589710        1.08314691401401        0.81269881930987
O            4.04081434913311        0.45358552858740        1.66812774384880
C            4.07168674538320       -0.87763992960507        1.35590685424359
O            4.77915756591824       -1.68261024013379        1.92290568363088
O            3.21937195211913       -1.20768167836383        0.34014523343935
H            0.49363592360860        0.69587938948658       -0.23277054290310
H            0.78435884151939       -0.41209674135263        1.11315135024576
H            0.68423697320076       -1.04087069812436       -0.52286307490871
H            2.81622838716976        0.12424794282612       -1.12879210697010
H            2.35456580973755        1.56155077132087        1.43575507167705
H            3.65455007578883        1.85646717866125        0.24588788202015
