9
 energy: -1.598828617152 gnorm: 0.000671057002 xtb: 6.5.0 (97a52f5)
C            1.07476558948446        0.03105401851610        0.06985364902210
C            2.59514766842119       -0.00366900163145        0.00570963810205
C            3.09328394027430       -0.63446482653489       -1.15425947339530
N            3.48489461969494       -1.15577072655419       -2.10996930450904
H            0.71158996144691        0.52286738108040        0.97417807869184
H            0.66097913958581       -0.97828199728999        0.05063274462942
H            0.66081879526687        0.56337443626527       -0.78783334856576
H            2.99969440378525       -0.51923022306403        0.88676847694904
H            2.99961588204026        1.01613093921280        0.05194953907565
