11
 energy: -1.695590518720 gnorm: 0.000825203734 xtb: 6.5.0 (97a52f5)
C            1.06628995790015        0.09138176325439       -0.03683353853569
C            2.58045595103957        0.06095554262464        0.02906791747939
C            3.07425287504006       -0.53579805958846        1.32144726685915
O            2.26258223406748       -0.91338859740732        2.13919692028115
O            4.41889107311627       -0.61098584749110        1.48427224220727
H            0.69877297423138        0.52226464029754       -0.96998924297474
H            0.65793103379012        0.67301895928160        0.79116426761951
H            0.65793462527295       -0.91609350416631        0.05739313722042
H            2.98788058512796        1.07248074846861       -0.07205357268359
H            2.98788410972980       -0.51806009096444       -0.80648396623838
H            4.89940458068427       -0.25208555430917        0.70700856876551
