18
 energy: -2.578336837325 gnorm: 0.000735341322 xtb: 6.5.0 (97a52f5)
C            0.94264001094978       -0.11112441331606        0.07368731005864
C            2.45694735823862        0.01480188689173        0.09632076833044
C            2.99177835978146        1.43007091109283        0.43001859872250
C            2.53413119509759        2.44988481588811       -0.62078828998661
C            2.52615691903747        1.87135210949962        1.82331083682796
O            4.43671456492424        1.38225027518552        0.43749976768391
H            0.62341978635624       -1.12781699674178       -0.16662234062658
H            0.49492427257401        0.54924523592541       -0.67060991030158
H            0.50259465554512        0.14230444373854        1.03934022442155
H            2.87349161484567       -0.28686221684778       -0.87098494663987
H            2.88421967591578       -0.68274051609388        0.82498127700861
H            1.45195551389409        2.57113385861298       -0.61221068463654
H            2.83620988039192        2.13861833219885       -1.61985744089518
H            2.98323509939179        3.42165659618651       -0.42140011914483
H            1.44321535340768        1.97503383036068        1.87087108632153
H            2.97064913887818        2.83191084630344        2.07898978831749
H            2.84000034777330        1.14820341029562        2.57447110009278
H            4.75739625299707        1.12548759081966       -0.45447702555423
