17
 energy: -2.406169523431 gnorm: 0.000390382570 xtb: 6.5.0 (97a52f5)
C            1.00277811317363       -0.01369184422984       -0.01531349875092
C            2.51938300786448       -0.10539758790500        0.05606767514796
C            3.06846595531181       -0.23412979233699        1.49117311895727
C            2.59609723310121       -1.52314682630441        2.16682387790101
C            4.59703932591142       -0.15132397374199        1.49521704544917
H            0.65101413090077        0.14383245816862       -1.03800537268305
H            0.62809905188198        0.81374839692246        0.59070084152626
H            0.52667668226296       -0.92485684530954        0.35152593982618
H            2.96754392473866        0.77798440541343       -0.41829419459148
H            2.87592945828822       -0.95819453097715       -0.53506733899039
H            2.67620857268025        0.62043009091396        2.07186475717314
H            2.91387168802934       -2.39617256967544        1.59563026322852
H            1.50947493531881       -1.56367360802006        2.25484901433731
H            3.01139394581059       -1.62043461487399        3.17150512741431
H            5.02819789044293       -0.97587445234867        0.92616569517778
H            4.99854538737071       -0.20691871858777        2.50861018302300
H            4.95057069691224        0.77827001289235        1.04567686585393
