20
 energy: -2.849084281912 gnorm: 0.000208125685 xtb: 6.5.0 (97a52f5)
C            1.04618013884647       -0.09284663822521        0.08089115580404
C            2.55754955622674       -0.01884479109007       -0.07401058704749
C            3.08679696403020       -0.68595316925610       -1.36042895627460
C            2.57589046656644        0.02766072606493       -2.61321928979237
C            4.62786008896954       -0.75543265700471       -1.33866101304351
C            5.22192358811816       -1.59251508678089       -2.46119694175126
H            0.71193339377199        0.33052267953052        1.03147441658080
H            0.69546076059394       -1.12626675811666        0.04216641137811
H            0.53166146639301        0.45333038207659       -0.71174011524450
H            3.04062390544064       -0.48589355409601        0.79460961803588
H            2.89080906658534        1.02635947953262       -0.05788871525015
H            2.70845261747023       -1.72257836361721       -1.37585951586923
H            2.92659790355065        1.06011082793554       -2.63777948278749
H            1.48602568686111        0.04957124768821       -2.65222598110803
H            2.92065262230734       -0.45855287510512       -3.52675013821284
H            4.95338573832895       -1.15494500557546       -0.36894770387506
H            5.02591015089306        0.26636370884907       -1.37423335435464
H            4.82024339883283       -2.60792368034762       -2.45154834354394
H            6.30917232377695       -1.67028303212099       -2.38097715501941
H            5.00237016243643       -1.16715344034139       -3.44207430862434
