142
 energy: -26.477379041723 gnorm: 0.000462793867 xtb: 6.5.0 (97a52f5)
C            1.57916221972567        0.95836541339518       -1.65501120525949
C            2.70063487906226        0.12369752140720       -1.05633870826425
C            2.93920036920039        0.39395462365300        0.43213446323958
C            1.80572890928341       -0.13459473949537        1.29234951458555
Si           4.65416592158075       -0.28061393911871        0.93583519736232
C            4.99358500935843       -1.78975912237773        0.04874607388456
C            5.48862224303597       -2.78378832018846       -0.44376022910748
C            6.18946285154701       -3.89219264509030       -0.93831972430752
C            7.43133487463835       -3.68612800518431       -1.56819534262192
N            7.86501372304434       -2.42210536404395       -1.75990432497629
C            9.03955165393301       -2.27970996552900       -2.33865726490828
C            9.40265498891186       -0.87981076000510       -2.64108934552350
C            8.38479822793666       -0.01408535554368       -3.04079104970495
C            8.61385802908237        1.32885609071617       -3.22556381193623
C            9.86950169178370        1.85177528646369       -2.98900548487789
C           10.89050832584551        1.02113033587035       -2.58868899216626
C           10.68238575279841       -0.34155402869657       -2.42483350066696
C           11.83156289760913       -1.19085438026425       -2.04647603417561
O           12.54937640861480       -0.89955997878269       -1.10882728291115
C           12.14699560184907       -2.33604295661066       -2.92947376621805
C           13.44363190300348       -2.43423627551981       -3.41641913777785
C           13.81069976914661       -3.44837641226346       -4.26989211238729
C           12.88033987494934       -4.39599242529420       -4.64520071711552
C           11.59716223323237       -4.32586858368580       -4.15647059484249
C           11.19125710554006       -3.30316409133970       -3.29884565475307
C            9.83902171663093       -3.40712158265584       -2.71681808415374
N            9.38794320570732       -4.64088186136637       -2.60780392976579
C            8.17620390651117       -4.79800279751165       -2.03418341914948
C            7.65033132237931       -6.09245128155776       -1.87690468542874
C            8.29415496457911       -7.22320260089097       -2.40313384038336
C            8.60792198937142       -8.29571569935302       -2.88199916837318
Si           8.38388780165096       -9.95049688193186       -3.52004250204654
C            8.26733833348705      -11.09782165834780       -2.00106096366237
C            7.82054111500339      -12.51555640104395       -2.30229246842233
C            9.56230404939795      -11.03704792820107       -1.19043405049011
C            9.40302538194800      -11.52486927098614        0.24125798137483
C            6.72248162920196       -9.88766826181603       -4.45795217115651
C            6.53489981991267      -11.01434918046780       -5.45595398791374
C            5.55911887527802       -9.75291683814964       -3.47175193956864
C            4.27312214461990       -9.23673273687763       -4.10035992695856
C            9.81476290115217      -10.37265939051995       -4.70880139317492
C           11.10060008404798       -9.70297581169515       -4.25785173954409
C            9.97705189759768      -11.87532238382644       -4.93747180335927
C           10.80693774897084      -12.21278576881025       -6.16644710463323
C            6.41464494972830       -6.29692188774733       -1.23627720588165
N            5.98181818744616       -7.56124999287503       -1.04955547282927
C            4.78398056753846       -7.70366108957743       -0.52453955613630
C            4.39086251476826       -9.10770573086148       -0.28371871864419
C            5.36589663871256       -9.99826863654161        0.16390872032579
C            5.12010012322417      -11.34871024059545        0.24664333657028
C            3.89029578929392      -11.84937940797704       -0.13319699519631
C            2.91038835006491      -10.99229364092542       -0.57889490688280
C            3.13785309068713       -9.62505775132953       -0.64950878719905
C            2.05723577089289       -8.73578053731803       -1.12516118964729
O            1.48883919547702       -8.94610742578939       -2.17959110246438
C            1.65048411679391       -7.63479073159135       -0.22194932160548
C            0.31509371237840       -7.55100910984180        0.14812359724083
C           -0.12498029959372       -6.57013228414670        1.00639093385983
C            0.76879776884151       -5.64283955182050        1.50354500120278
C            2.09149399913364       -5.69894676088271        1.13231348170427
C            2.56996753552685       -6.68954475130422        0.27524568121455
C            3.96643336226517       -6.57673287814206       -0.18785344935137
N            4.42883490185794       -5.34377754431900       -0.25431055964640
C            5.66230724028446       -5.18633910640183       -0.78293576084935
C            6.02769755518587        0.97873566902438        0.50073069779918
C            7.35926525996604        0.25984942319032        0.34664564270130
C            5.70123453475711        1.83622839073675       -0.72377773872190
C            6.62021299321993        3.03823690899071       -0.88133997561718
C            4.67955955784676       -0.66290178758949        2.80893859506106
C            4.07287992427374       -2.03422076601791        3.05649059887828
C            6.06845274920745       -0.53194038135987        3.43702302863060
C            6.05782157082447       -0.59188518981640        4.95696795956346
H            1.45109213556124        0.76456936615942       -2.72217065264938
H            1.77603881902781        2.02532922616351       -1.53703651692129
H            0.62346682127228        0.75110401829210       -1.17157371290337
H            3.63126673409672        0.29329034940628       -1.61150206342511
H            2.49131474890063       -0.94568296344051       -1.18741108333864
H            3.04484307348504        1.47393729514001        0.59712064598112
H            1.67077095369130       -1.20504931599074        1.13473716375714
H            0.85837886143282        0.35014532143780        1.05209917565656
H            1.99202772613989        0.02697286279154        2.35459921627903
H            7.39924246567425       -0.42060467656310       -3.19113353195373
H            7.81182685771748        1.97404171853256       -3.54470370771221
H           10.04980195666645        2.90623166563375       -3.11923127362073
H           11.87440801198957        1.41570875635987       -2.40008403795309
H           14.16244153633143       -1.69410316689018       -3.10800016107115
H           14.82124703342167       -3.50518141254647       -4.64000664326785
H           13.16353645005494       -5.19851789589237       -5.30646322801319
H           10.88102384615987       -5.08803480218037       -4.41230770303050
H            7.48036251052212      -10.58658770412429       -1.43119446465382
H            8.58982333273514      -13.06236203050072       -2.84614125013081
H            6.91253483555677      -12.53288860709329       -2.90439174091510
H            7.61326847128447      -13.07372910411042       -1.38814823503948
H            9.93470611663939      -10.00398563990845       -1.19167454337096
H           10.33288348375847      -11.62116876028653       -1.70785062016060
H            8.64738164441859      -10.94444402721007        0.77325281600807
H           10.33436379171133      -11.44449768599306        0.80596305226004
H            9.09137711030521      -12.56970989327976        0.27627109046382
H            6.82778558976439       -8.93831643899766       -5.00156712397305
H            6.44962677486840      -11.97618149420104       -4.95165299686925
H            7.37360250905645      -11.07859894828902       -6.15051778676250
H            5.63000161346057      -10.87799287813845       -6.04978003019405
H            5.86484171458134       -9.08198699380618       -2.65967816455255
H            5.38299857025793      -10.72225597379046       -2.99026570607971
H            4.42519406588052       -8.25913834734350       -4.56044339386133
H            3.47126367810643       -9.12809057901263       -3.36654253082625
H            3.90889394874854       -9.90914417460889       -4.87785237406140
H            9.47063579620487       -9.90707611363175       -5.64239222998496
H           11.46307108305331      -10.14606381698608       -3.33002520586337
H           10.95135707702299       -8.63749613542441       -4.07394239509398
H           11.89268705622069       -9.80235086901253       -5.00149223142135
H            8.98568703758900      -12.33735012679576       -5.02064179089526
H           10.42927020809996      -12.32136066067251       -4.04360449618050
H           10.36858965025410      -11.78192458418061       -7.06833316856746
H           10.88542582284222      -13.29082136885758       -6.32324730299077
H           11.82223395652936      -11.82237040795850       -6.08350849185025
H            6.33229592426103       -9.60445205724246        0.42831129931211
H            5.89033148450440      -12.01715431356662        0.59488372055952
H            3.69855716648740      -12.90852466296142       -0.08080367108124
H            1.94937289100687      -11.37021460136869       -0.88327243066768
H           -0.37432088179078       -8.27349657290869       -0.25449660974851
H           -1.16483847564177       -6.52271962661574        1.28540702935798
H            0.42721267887151       -4.86635288909106        2.16832120068192
H            2.78285871014548       -4.95150539944573        1.48222332276768
H            6.04780986954142        1.63115089315897        1.38300550710022
H            7.34802379161380       -0.37844506932861       -0.53708835935107
H            7.57827044431477       -0.38492310133151        1.19710470908813
H            8.19165460001776        0.95636423744124        0.23830044999674
H            4.66164087311802        2.17917396133976       -0.66410870808681
H            5.74810874199051        1.20290402691333       -1.61805463431080
H            6.57259634480804        3.68788247816339       -0.00572248605234
H            6.35698451289807        3.64251881213906       -1.75225854558604
H            7.66130474280621        2.73569272378469       -0.99945046073941
H            4.03297760994910        0.11914964705540        3.22724747350477
H            4.73700157856617       -2.81751485980120        2.68827543992047
H            3.11988766069891       -2.15536268501794        2.54166567358950
H            3.90061317637901       -2.21857092346876        4.11790512546714
H            6.52737351626705        0.40987774109137        3.11359063604333
H            6.71055329595495       -1.32468913749212        3.03413195399458
H            5.41336863057698        0.18205621139822        5.37743774650474
H            7.05600067189909       -0.45131903894718        5.37754307340844
H            5.68810896985210       -1.55234557543151        5.31856866184808
