30
 energy: -4.345189406030 gnorm: 0.000639204207 xtb: 6.5.0 (97a52f5)
C            1.01449235963991        0.00985601329856        0.41448899648834
C            2.38681281197149        0.00144929189987       -0.23683841774996
C            2.99972864451564       -1.41636418381285       -0.48897080573918
O            2.57500919114654       -2.32008479189184        0.54039802445570
C            2.56101914329852       -1.98810293729927       -1.89642630862920
C            2.60545509105204       -3.51859002657662       -1.94318059042562
C            1.16664301016221       -1.54925309572200       -2.35252493820654
C            4.56357617015766       -1.26993146575458       -0.38515465033768
C            4.98460069112865       -0.98075698548994        1.05800360414240
C            5.34226298700172       -2.48279060255715       -0.88532191619013
H            0.64510107968322        1.02661812483301        0.57034097805455
H            1.04301539341826       -0.47490140574469        1.39226754019361
H            0.26635907000881       -0.51228669454825       -0.18057236165254
H            3.06671964029826        0.57360423601653        0.40128654216759
H            2.38327890728851        0.56046901581447       -1.17927280138870
H            1.60610206889231       -2.46279156465448        0.46277913044412
H            3.28598034835909       -1.58736143984708       -2.62398256165229
H            1.85574255706528       -3.94124125116728       -1.27388408522627
H            3.56329619573661       -3.93448643500631       -1.64100048872329
H            2.38786015195927       -3.89112972276618       -2.94600783362532
H            0.39853707982929       -1.94880308466443       -1.69045091350093
H            0.94566271334238       -1.92775479635849       -3.35257802320005
H            1.05543604549216       -0.46560048968958       -2.39179495160927
H            4.83897686069523       -0.40751795791772       -1.01477343441066
H            4.63532669165037       -1.77926525668101        1.71356838738167
H            4.58257229157397       -0.04472119654211        1.44483845524787
H            6.07078323749355       -0.92930607906959        1.15263109448006
H            5.07399279812235       -3.37137875552931       -0.31399017067891
H            6.41695252256512       -2.33794989220488       -0.76210714418068
H            5.17027424645161       -2.67872657036669       -1.94405035592823
