104
 energy: -22.269438008952 gnorm: 0.000444583913 xtb: 6.5.0 (97a52f5)
C            1.90112787389625       -0.22992700535283       -0.00093486377797
C            1.16221227002116        0.87156190354930       -0.22012221558097
C           -0.28863680144278        0.92906870471876       -0.23688976803311
C           -0.92431713030555        2.16535649084828       -0.37600797482060
C           -2.29488659585452        2.26503156063718       -0.36172503070808
C           -3.09475123234613        1.13288665943694       -0.20800538065763
C           -4.57027923448386        1.24150626178211       -0.17380184380851
C           -5.24363976403609        2.13498327613336       -1.00649613256721
C           -6.61736318751850        2.23550852457830       -0.97092065276984
C           -7.34750439051923        1.44808704439714       -0.10368895776828
C           -6.69918685414263        0.55876237398288        0.72931680230847
C           -5.32568930840319        0.45534823240570        0.69603173397529
C           -2.46247691627309       -0.10388340827654       -0.07923901408829
C           -1.09141329418419       -0.20545437539269       -0.09368707875681
C            3.34901088198999       -0.24162329039511        0.09679284757475
C            3.99864484911431       -1.33320264475845        0.68273374996376
C            5.35158635847242       -1.31161376037224        0.90257543963031
C            6.11394736522650       -0.19009269597002        0.56507784307139
O            7.47199110032281       -0.14753319710803        0.91643534401991
C            8.10712622513361        1.04009559564663        1.33455311970931
C            9.46435692435085        1.13768422354372        0.95359839921136
C           10.25139660588211        2.17203372073052        1.33682458930436
C            9.74200921881077        3.18874762533308        2.17327925135344
C           10.55361587477850        4.25512488533294        2.61044472788724
C           10.05503429883576        5.21737552809164        3.43819342368101
C            8.72959412421463        5.15104949847322        3.87059523645989
C            7.92139757044554        4.13189527124620        3.46123503989129
C            8.38866376851821        3.12903697285793        2.58481263091375
C            7.53699044961801        2.06787334814673        2.12136033508791
C            6.11015664526482        2.06373077086055        2.50396500343096
C            5.28114020161694        3.16428898981632        2.19329407278594
O            5.78091194775986        4.36409475096520        1.62419056513624
C            6.32585412586246        4.37039816565796        0.31853424628428
C            7.63336300358637        4.80768257637760        0.10188907702628
C            8.19092662972549        4.76510830526947       -1.14812133645348
C            7.46215879464124        4.30006634036758       -2.24776023044438
C            8.10425097643171        4.23996509859969       -3.54670072508920
C            7.56855274349085        3.71816625191900       -4.66345647469997
C            8.23434716261890        3.63992343810528       -5.95265250979881
C            7.61325036010736        2.97186207971589       -7.01100913013450
C            8.22322599017985        2.86309144411686       -8.23804211786724
C            9.48263872662184        3.41775799418053       -8.46508984853315
C           10.14862286021640        3.28737897456473       -9.78035852087352
C            9.42290713372969        3.39445015931922      -10.96642286476963
C           10.04609864209871        3.26929908427387      -12.18893153367159
C           11.40471671343368        3.03397124965182      -12.25346683675490
C           12.14001350463382        2.92456068392870      -11.09050829799878
C           11.52031673551689        3.05008455732313       -9.86642017193227
C           10.10116309196960        4.09253897806664       -7.41294161948634
C            9.49240022732388        4.20234671978347       -6.18537543484883
C            6.13402293439322        3.91169856512052       -2.03670101152493
C            5.57788640724039        3.95474302032504       -0.78340104714042
C            3.90398732415872        3.10851099657370        2.49644966805600
C            3.35355572655942        2.03378515281216        3.11346874065956
C            4.15782717523586        0.94229263039830        3.51462501964829
C            3.61208353400644       -0.16046827976916        4.20182184539458
C            4.40843354640077       -1.18777302605797        4.61551909962265
C            5.78183915786969       -1.15728990602353        4.36517814823357
C            6.33686321562734       -0.10808234953214        3.69367049455290
C            5.54517514872904        0.96410467214038        3.23195833350062
C            5.48610935213988        0.85656126683250       -0.10488757742155
C            4.13363894794900        0.83536684540645       -0.33002402884958
H            1.40148615194472       -1.16306280456701        0.18305449816545
H            1.67136457817723        1.81014229725142       -0.34241079104735
H           -0.32272534281961        3.05158249977779       -0.48542007113171
H           -2.76438116431368        3.22944942442263       -0.44995668320994
H           -4.67732091478382        2.74054952835689       -1.69276790345670
H           -7.12321631533458        2.92908256360883       -1.62268126581107
H           -8.42206536151654        1.52784698540302       -0.07705255398018
H           -7.26833644436641       -0.05431298124742        1.40900028299933
H           -4.82106476325538       -0.22723713050506        1.35775360097088
H           -3.06554792510815       -0.98964965427569        0.02159792572790
H           -0.63349872980705       -1.17325427420453        0.00516520537985
H            3.41547574292076       -2.18140568549460        0.99817201935081
H            5.84324175959687       -2.13491808110140        1.38942671527639
H            9.86365999190032        0.34919904790719        0.34042027124940
H           11.28026129684155        2.21925033747748        1.02417229574101
H           11.57786359027715        4.29865619869859        2.28211393441393
H           10.68459269264390        6.02881108665874        3.76494623367781
H            8.34175545130167        5.91713259869201        4.52196777949626
H            6.89560892638100        4.10127588944633        3.78279104267439
H            8.20421492776302        5.14857050458227        0.94628590612653
H            9.21015204635354        5.08104252562349       -1.29152167182106
H            9.10458140723260        4.62916119110458       -3.59193967410480
H            6.58067316194925        3.29886156976111       -4.61335690846223
H            6.64444670838028        2.52997594983938       -6.85198314899488
H            7.73656608693744        2.32785794447313       -9.03492528394452
H            8.36577980747718        3.59083117007870      -10.91807766726688
H            9.47199310659317        3.35696403693189      -13.09689973496041
H           11.89079367043736        2.93551410848901      -13.21043154323656
H           13.20045422512783        2.73810977028928      -11.14003524647240
H           12.09258580075246        2.94975411153605       -8.96036931559010
H           11.06565949182658        4.54143832314694       -7.57655688905808
H            9.99362865001891        4.73412749902088       -5.39680322205133
H            5.53725194483371        3.57988365672220       -2.86734641046483
H            4.55143719940986        3.67767363058820       -0.62561404296362
H            3.29647614039349        3.95248915486233        2.22182385519355
H            2.29864320324692        2.00948069635454        3.32572023269823
H            2.55439805597909       -0.17847684627838        4.40103103634695
H            3.97970368754965       -2.02506760575738        5.14143565262745
H            6.40348795700566       -1.97238029955156        4.69785741902986
H            7.39244216355717       -0.09869511496484        3.48697637406866
H            6.08848120104307        1.69238086593771       -0.40696032754031
H            3.66665639851256        1.65818178539715       -0.83985652399545
