118
 energy: -23.884418881030 gnorm: 0.000528543409 xtb: 6.5.0 (97a52f5)
C            1.16329862924606       -0.53774849743641       -0.71197473705520
C            2.34991250494563       -0.08335450531659        0.12168954597206
C            3.07894168851715       -1.24624882418867        0.84402836290252
C            4.28803747979730       -0.71065790871586        1.65393586530366
C            5.04419222051642       -1.79655774885504        2.40067300011435
C            3.52306732539000       -2.31210505395491       -0.15970649265793
C            4.38890321644219       -2.21740304414848       -1.22521907948952
C            4.62349432226766       -3.33721136106566       -2.02756301209449
C            5.53326303638996       -3.24169696621194       -3.19283384214456
C            6.82578126859206       -2.74829138025951       -3.02078025700313
C            7.70654659521466       -2.67218146070103       -4.07240905264682
C            7.33005524284841       -3.08586154973210       -5.34947721226087
C            8.27707439481330       -3.00789944913594       -6.48534681731850
C            9.61482190041357       -3.36660165207059       -6.32723562384667
C           10.49496437665834       -3.29271801497095       -7.38515673412064
C           10.05808963587303       -2.85911547123304       -8.62065155472844
C            8.73683673868672       -2.50004663139691       -8.79621328074406
C            7.85392997193415       -2.57371850704053       -7.74054054998872
C            6.03874170779948       -3.56770688278944       -5.53053957298100
C            5.12838518093231       -3.64864069789209       -4.48365110174387
C            3.75246272158685       -4.13572906335046       -4.74831484212835
C            3.54057995050820       -5.36343835855583       -5.37262273043993
C            2.26251118583229       -5.82229684549615       -5.60682361206601
C            1.17327414780183       -5.06434830350205       -5.22521369193561
C            1.36460289496342       -3.84290417216588       -4.61078729543554
C            2.64105539112105       -3.38051280107614       -4.37708553718041
C            3.97865399623703       -4.54218336996646       -1.71832872780791
C            3.11272301451026       -4.64201233869526       -0.65301804314798
C            2.88072919024652       -3.51904288920427        0.13006994486391
C            2.02004468879786       -3.34234138174421        1.30254568543379
C            1.20512540152704       -4.26353002531801        1.95237278603929
C            0.50679354561634       -3.83928255929158        3.06449201768378
C            0.59135304479018       -2.50643791122457        3.50027533938717
C            1.39944539767612       -1.58214364029509        2.84541648808910
C            2.11488777129289       -2.01570189755837        1.74961468298916
C           -0.30412670446419       -2.31197950189249        4.64231452594503
C           -0.57895787023360       -1.17097800366052        5.38503013041531
C           -1.49849240576758       -1.24761706474562        6.40655380220438
C           -2.15821734685140       -2.44640876010864        6.70733927505334
C           -3.16934116496395       -2.50361674420332        7.78964322966984
C           -3.01160589584097       -3.41020757657054        8.83671888421727
C           -3.91801294073267       -3.47363861673273        9.86714322515562
C           -5.02885030493780       -2.63135363464387        9.89295406709878
C           -6.00981014847722       -2.69941401431574       11.00033701122092
C           -5.58889187503353       -2.84259210418881       12.32145333183021
C           -6.50352693258317       -2.90901697334515       13.35021479677122
C           -7.85529913753570       -2.83496421131560       13.08109977843120
C           -8.29077562644013       -2.69269127435876       11.77904071676164
C           -7.37865504732271       -2.62476420996530       10.74814272888363
C           -5.19717426946349       -1.73194488257231        8.84624484903439
C           -4.29650218036790       -1.65241797246567        7.79093103433220
C           -4.54679383519685       -0.69865085285929        6.68287439473256
C           -4.78140003645961        0.64989721606798        6.94392278486558
C           -4.99978090452449        1.53846466372987        5.91351443704727
C           -4.99009829064666        1.09832241457530        4.60482171143322
C           -4.76519131541009       -0.23529947204625        4.32793797150718
C           -4.54947940118477       -1.12633358020906        5.35605265272258
C           -1.86694031866852       -3.58861151829628        5.95704134856113
C           -0.95180516914336       -3.51550009910242        4.93138818618007
C           -0.47489915287861       -4.60158394769256        3.96143637549202
C           -1.66395833430811       -5.15588179875646        3.13568978983754
C           -2.43908243741712       -4.07726905744900        2.39612315375933
C            0.23116617637359       -5.71974914562721        4.77558657355787
C            0.85483531506016       -6.83714230235843        3.95653436401869
H            0.66813828491599        0.29784153212137       -1.21161571360339
H            0.41689296269620       -1.04129593435917       -0.09487974226195
H            1.47042394624675       -1.24642540625069       -1.48334885609484
H            2.02777624386011        0.64641187264345        0.87315546854148
H            3.07471236703502        0.44332207059619       -0.50955752419648
H            3.92757649605695        0.04977218308184        2.35616825004241
H            4.96139193128637       -0.18407900558393        0.96804769092279
H            4.39476089186607       -2.31255765433550        3.11026547332915
H            5.89192343865328       -1.39643622156679        2.96141802860312
H            5.43069502034366       -2.55147138728962        1.71350704116557
H            4.86848737100494       -1.28240714030254       -1.45039502377128
H            7.13304359897011       -2.43564670936495       -2.03746243597631
H            8.69798686840807       -2.28184296526763       -3.91944311449500
H            9.95305107739632       -3.71637555047049       -5.36708457904117
H           11.52605351328760       -3.57539656006732       -7.24807643299049
H           10.74768458465944       -2.80076619324635       -9.44712596822402
H            8.39566491489581       -2.15939073208690       -9.76020865693121
H            6.82671407932540       -2.28140173769005       -7.87468704141497
H            5.73171650599109       -3.88649834458611       -6.51020786170723
H            4.39191906987754       -5.95636636519480       -5.66023540906157
H            2.11296221503275       -6.77588081645703       -6.08666164700825
H            0.17421270880007       -5.42599114572530       -5.40713909769854
H            0.51473966468718       -3.25115121408485       -4.31164154955356
H            2.79440727880227       -2.42986551914727       -3.89577930101041
H            4.16692340128323       -5.40104753066961       -2.33914336666867
H            2.61577869473662       -5.56818844645338       -0.42361884917030
H            1.10784885319942       -5.26589068193547        1.57990166257627
H            1.45965479741385       -0.56319632809405        3.17979292587262
H           -0.08153883951243       -0.24606311104111        5.15180097289574
H           -1.73105697226154       -0.37204643398480        6.98788585314273
H           -2.15355207425805       -4.06044785680686        8.83227710108093
H           -3.78226463738819       -4.18577657109980       10.66285513524455
H           -4.53452227842026       -2.88872356414891       12.53280454820010
H           -6.16284863657330       -3.01792399224648       14.36697437392496
H           -8.56977167874544       -2.88832423357027       13.88650647800492
H           -9.34625938940180       -2.63728067261233       11.56809967152159
H           -7.71915816185409       -2.52718690727259        9.73174936518062
H           -6.05107002176757       -1.07890722118446        8.84974102205302
H           -4.77822579225872        0.99211228089146        7.96464339618448
H           -5.17586701710152        2.57974057730351        6.12951870515322
H           -5.15806159865617        1.79547940855317        3.80000544945865
H           -4.75603436548392       -0.57964341778953        3.30653677240717
H           -4.37205415774310       -2.16660862023572        5.14382635427351
H           -2.37055584954701       -4.51413018385911        6.16858543634092
H           -2.33069546023640       -5.70575108189326        3.80968985759851
H           -1.28506903490620       -5.89621507175211        2.42308215475063
H           -2.85171853210364       -3.34156001206145        3.08883781787074
H           -3.27096006650753       -4.48973960700603        1.82084189091430
H           -1.79506437627923       -3.53518234847951        1.70114387439499
H           -0.49777338936892       -6.13707166375706        5.48002930636467
H            0.99703879118917       -5.24601855202122        5.40102955543116
H            0.11990770943968       -7.32833336529712        3.31732857228070
H            1.29367849415211       -7.60899783366464        4.59326564614730
H            1.65358433048073       -6.46449382348402        3.31444087044418
