220
 energy: -44.127477823469 gnorm: 0.000625781999 xtb: 6.5.0 (97a52f5)
C            0.25065729665673       -0.02923868709239       -0.51152942202827
C            1.70150816754307       -0.38848279505027       -0.78422117403393
C            2.41345112244814        0.47362730620127       -1.86177534855710
C            1.74984297575567        0.31264895820327       -3.25323722290276
C            2.47464928568028        1.06381136120688       -4.35793201030928
C            2.48741963955634        1.94888638652198       -1.45240037183414
C            1.49184976097459        2.89273011226102       -1.33762501755051
C            1.80910866069498        4.20669640219066       -0.97547337573682
C            0.74624703325049        5.22385384670021       -0.85523877236609
C           -0.52981160969893        4.87793745209923       -0.40248779672259
C           -1.52580640856329        5.81823880697218       -0.30926112830048
C           -1.29082589224806        7.14527992536987       -0.66484104040113
N           -2.33852673815476        8.12313217157129       -0.59504794338332
C           -3.28290010646314        8.07266329047264        0.48064304804658
C           -4.62046669694987        8.41302510141653        0.28490970768363
C           -5.53392420551755        8.29445335438597        1.30443557811122
C           -5.14916457752584        7.82787590496948        2.56450322470262
C           -6.13405127966187        7.64707718284991        3.65017793475503
C           -7.20214751782087        8.54099102268780        3.81461760011831
C           -8.12852479490939        8.37924574658784        4.82047844006006
C           -8.00191205826360        7.29918215633612        5.68687202691028
C           -6.94432266032626        6.39698300342072        5.53582980925048
C           -6.01899494777338        6.56607524703524        4.53169631010930
C           -7.05186658884805        5.29832572330193        6.59914262112569
C           -5.77923410709102        5.25626259127358        7.48295863652053
C           -5.44955205232246        6.59090363948772        8.13078574974004
C           -7.30065131985668        3.94013844896966        5.88843187883766
C           -7.57186587181257        2.75968589456201        6.80587492619116
C           -8.27132014038873        5.74525521886028        7.41153221347900
C           -8.81122322997699        5.22472785618395        8.56414128163589
C           -9.92317473837267        5.83825981795259        9.14577277179825
N          -10.48971287209919        5.30380316585582       10.36329324191075
C          -11.72515711788191        4.59986337054934       10.31552609839889
C          -12.36950651275581        4.42571262008791        9.09179900848789
C          -13.56137737148473        3.74731984422216        9.00207474159997
C          -14.13476004196558        3.22599307552439       10.14117895910016
C          -13.50586663585823        3.38430288485241       11.35967837992435
C          -12.30051927455846        4.06149904952504       11.47288249003738
C          -11.63104783721128        4.19032196616321       12.84779034162626
C          -12.58579345674452        4.95425554293106       13.78675473547234
C          -11.36681118049675        2.77392886370784       13.39757297629423
C          -10.29658948859138        4.94599408544623       12.79005772745787
C           -9.56690971346179        5.13575725488678       13.95447233094150
C           -8.36710853873052        5.81829420038902       13.95309794710482
C           -7.87324803430703        6.33202812178946       12.77399246846204
C           -8.58021706268863        6.15623643045651       11.60872760381710
C           -9.78942245937118        5.46270373847826       11.59171669480932
C          -10.46903522820870        6.98134966518663        8.54928473640487
C           -9.92168867278269        7.51964569310179        7.40855921551693
C           -8.81265563655483        6.90311467261740        6.83793965578822
C           -3.80390030771643        7.50654944641170        2.76155116208591
C           -2.89208245041814        7.62891329977690        1.74289056806361
C           -2.46274953676280        9.08946801016971       -1.64606695690395
C           -2.89449522485040       10.38987669243173       -1.39008044019334
C           -2.97776507040864       11.31590555364922       -2.40219252220884
C           -2.63163262363610       10.98096093570360       -3.71442923400187
C           -2.69431182629127       11.97194520057653       -4.80743317221266
C           -3.69899522333875       12.95006028196699       -4.84153966952653
C           -3.78126034901777       13.86265442859013       -5.86957000554947
C           -2.84129127027059       13.81284488992293       -6.89292775826432
C           -1.82898526579635       12.84853941537412       -6.87095190509547
C           -1.75257238717830       11.93827841035739       -5.84223335353868
C           -0.93314903344248       13.01627341247103       -8.10309595207539
C           -0.91374961821813       11.71943244251978       -8.95201256611059
C           -2.29813092860845       11.25002797994942       -9.36809255871040
C            0.49253247300571       13.41644100067152       -7.63567904784013
C            1.47108760996964       13.76539453894606       -8.74468612420725
C           -1.62255076682671       14.15704450512781       -8.85728607350432
C           -1.35720999730968       14.69026018086858      -10.09654148347922
C           -2.16535906193398       15.71403801995518      -10.59541534668546
N           -1.89584657477939       16.27280594666432      -11.90178562176913
C           -0.88599761032645       17.26334333301108      -12.04695258332998
C           -0.19717331934553       17.70953984374951      -10.92050126330894
C            0.78319325340935       18.66784281520782      -11.01737967709902
C            1.09275504150188       19.20216123643254      -12.24916398343089
C            0.41786444241458       18.77130317873760      -13.37375971541912
C           -0.57334696770765       17.80374042729563      -13.29990737155358
C           -1.29384998501401       17.35600840745387      -14.57928330744449
C           -1.99791619883770       18.57952622423344      -15.19854032678948
C           -0.24375686456078       16.79536202173502      -15.55973537761803
C           -2.34614340708794       16.26905536261439      -14.31958223932053
C           -3.06660555155531       15.74364819474036      -15.38213791063929
C           -4.01395307816711       14.75695437697056      -15.19586633176909
C           -4.25999237629044       14.27351296887748      -13.92918856814287
C           -3.56023355280985       14.78210787146192      -12.86132944091896
C           -2.60261753017167       15.78008565558491      -13.03322012530419
C           -3.24296555297638       16.17702367668834       -9.83087341284961
C           -3.52830414746727       15.63202159931948       -8.60112404696822
C           -2.71780431795165       14.61250168075259       -8.11145259094330
C           -2.20949277163559        9.67347169965164       -3.96705325346207
C           -2.12782181731458        8.74989249493475       -2.95558296434183
C           -0.01814327500851        7.49576453062857       -1.11228279592638
C            0.97909410409414        6.55650972297114       -1.20527679160863
C            3.15211505411886        4.53762122694591       -0.74475302571893
C            4.15599392949852        3.60589847427782       -0.87977436957488
C            3.82441940878686        2.30508564617502       -1.24066661631840
C            4.68426280889357        1.15668709807328       -1.52231284008056
C            6.06994871596446        1.03877085163206       -1.49030930671265
C            6.64318648315778       -0.15986670269788       -1.84449778882309
C            5.85918233358232       -1.25182809044417       -2.23764102970235
N            6.48121405381989       -2.49957564816623       -2.61775279108858
C            6.41239074707112       -3.61686758268137       -1.73981112291388
C            5.74722209749646       -3.49340141292490       -0.52096374585230
C            5.66289832136725       -4.54768470181456        0.35666405184463
C            6.24945853885050       -5.75136177869698        0.03224615380505
C            6.91759890507369       -5.88747255006279       -1.16796164295525
C            7.01350073695405       -4.83756162737045       -2.06952709945857
C            7.77760160465038       -5.03686353722087       -3.38561442636010
C            9.24127341686235       -5.38762624190573       -3.05285444169709
C            7.11776332808041       -6.19389485565127       -4.16312237651479
C            7.76741455181295       -3.78552892063657       -4.27410631369282
C            8.39120448295006       -3.81964165331369       -5.51266521804716
C            8.39160023476023       -2.72430803719765       -6.35268065499799
C            7.75964641543903       -1.56328805451134       -5.96412993568901
C            7.13955525952718       -1.50582124455639       -4.73901527432384
C            7.13646912988643       -2.60079481184062       -3.87636618482601
C            4.46843006296328       -1.12332106032345       -2.26930917314498
C            3.89099803171816        0.07219219585053       -1.91369756244062
H           -0.20048033534248       -0.69801072842214        0.22538345684693
H           -0.35739783598382       -0.08997036086320       -1.41522729365887
H            0.15722380211147        0.98439090918372       -0.11977041835737
H            1.77609465971716       -1.43957743849707       -1.08674756974164
H            2.28279703121275       -0.31387356556401        0.14254779766366
H            0.71091036747827        0.65360212636157       -3.19098972531147
H            1.69778224558361       -0.75539304090049       -3.49359466370973
H            2.51969444419901        2.13319272305752       -4.14357055976728
H            1.98540824564564        0.94265955418467       -5.32705910908280
H            3.50376191116823        0.71539619110752       -4.46325682034649
H            0.47618276518184        2.63120256404063       -1.57000441507925
H           -0.72569887001604        3.86018720899917       -0.11254271601642
H           -2.50893586126260        5.53847791013107        0.02714953820410
H           -4.93419781795402        8.74353124464348       -0.68981022699204
H           -6.56850038062259        8.53296764312565        1.12823217909853
H           -7.28340047975376        9.38054762742751        3.14619206723165
H           -8.94075510010157        9.07346296701623        4.94615737908868
H           -5.22203236517684        5.85494511644103        4.41475564124834
H           -4.93832471854369        4.91593398264479        6.86795421829575
H           -5.91063719524359        4.49098777552877        8.25540598453186
H           -5.28529750833183        7.36486953042463        7.37879094658779
H           -4.55065864137352        6.53701948288034        8.74903732068185
H           -6.26707882892297        6.93286932343552        8.76797438452520
H           -6.43468436747176        3.72696350949637        5.25094616312436
H           -8.14132139319896        4.07288176267432        5.19701857810070
H           -6.75652349072607        2.60186597712946        7.51329143871140
H           -7.69508016755829        1.83037715773392        6.24448269092621
H           -8.48544113185336        2.90481484785462        7.38382322689595
H           -8.37435535286941        4.36558185775935        9.03794047564276
H          -11.91628262357544        4.82839424236615        8.20355634474461
H          -14.04389864795379        3.62284496578351        8.04614869224380
H          -15.06977629033224        2.69308859158400       10.08042124110755
H          -13.96191696221752        2.96988329115848       12.24200606104840
H          -13.54349125794446        4.44426527557273       13.88054491431551
H          -12.77453819900347        5.95593115483044       13.40160060806656
H          -12.16568636454222        5.05251590423200       14.78670404749984
H          -12.28908215153934        2.20096047040186       13.48165214703511
H          -10.91069434715001        2.80904305358662       14.38580237971693
H          -10.69287293190844        2.23069770407288       12.73573837525896
H           -9.94533738683705        4.74434888338681       14.88281486310633
H           -7.81964548460444        5.95170543034115       14.87203411047729
H           -6.93842652084429        6.86884461406902       12.76546253773913
H           -8.20065359035779        6.56228282843210       10.68821608643478
H          -11.32206017785339        7.44386095061203        9.01433959390868
H          -10.32859252673264        8.40982219941107        6.96218985476724
H           -3.48295384698103        7.16724526669409        3.73130038823294
H           -1.85793166416191        7.38059620859295        1.90712114495890
H           -3.14173090671671       10.66406929380210       -0.37932879855092
H           -3.28963729782646       12.32244866241685       -2.18361296682039
H           -4.43400393313275       12.96710464093878       -4.05566330231425
H           -4.56251272516097       14.60182373469863       -5.89691268801369
H           -0.96097109463832       11.21182534459341       -5.83116338456026
H           -0.40412823074443       10.93560131375813       -8.38009846063790
H           -0.29586654931318       11.88731234106355       -9.84055497895413
H           -2.92599949967087       11.05156971972732       -8.49754974633655
H           -2.26053437866709       10.33403253696800       -9.96199780802916
H           -2.80912869208091       12.00835187924160       -9.96427151431179
H            0.89298046651906       12.59733941181387       -7.02704940915948
H            0.39395916341340       14.26507731851203       -6.94837122081890
H            1.58993000100787       12.94368971240902       -9.45226813109074
H            2.46383805656862       13.99636521784316       -8.35112981593741
H            1.14146465831473       14.63948784608167       -9.30785205071501
H           -0.55433881517792       14.31030852615534      -10.70035043738761
H           -0.44459317957541       17.29121685999690       -9.96097758269127
H            1.30616904578366       18.99985766923670      -10.13513547933498
H            1.85960806553219       19.95493851366473      -12.33422587036803
H            0.66703834537662       19.19806415485712      -14.32979233376357
H           -1.28818750419277       19.37381286919651      -15.42539126048088
H           -2.74042644549301       18.97873904599209      -14.50816554484636
H           -2.50721663682048       18.31789377554040      -16.12496778174715
H            0.51642414948669       17.53830060906256      -15.79656456208475
H           -0.70096096325082       16.48314799313484      -16.49745955294517
H            0.25595309600643       15.93009445486697      -15.12507597300655
H           -2.88326581556035       16.11258713556946      -16.37637298499927
H           -4.55894775908969       14.36440942532926      -16.03897544485229
H           -4.99621762868622       13.50098103047346      -13.77678848638898
H           -3.74710754306476       14.40646464885181      -11.87096902070461
H           -3.85504873869861       16.96505409393879      -10.23350461750993
H           -4.36929436560398       15.97231394187435       -8.02300756253601
H           -1.96063862671572        9.38795940965715       -4.97449920799410
H           -1.80864130394592        7.74362323748216       -3.16424705106332
H            0.17115641184045        8.51992848878245       -1.38314422420500
H            1.94950163155652        6.84055684418558       -1.57364984773700
H            3.39708848335684        5.54304459014991       -0.44945321018427
H            5.18634847979099        3.87041632000335       -0.71872609676481
H            6.67315172494121        1.87944056662530       -1.19588655310337
H            7.71249399018328       -0.27846301684019       -1.82539449546941
H            5.29620733382468       -2.55059669607968       -0.26751395004646
H            5.14198947481354       -4.43309284629771        1.29349055449382
H            6.18868952410571       -6.58336290623849        0.71492899485558
H            7.37746066299932       -6.83064252685753       -1.40700952277173
H            9.30522216723142       -6.28671068537961       -2.44154734232351
H            9.71009118606554       -4.57267389615419       -2.50197823680309
H            9.82349801547117       -5.56107960967626       -3.95675705659251
H            7.11977603742761       -7.11573252593589       -3.58340702290284
H            7.63876289791176       -6.39367403755956       -5.09826775032867
H            6.08296186624981       -5.94860959238569       -4.40057493097029
H            8.88677073189924       -4.72135088423901       -5.82816494356243
H            8.88254335961010       -2.77702012399430       -7.31088464425425
H            7.75175624991949       -0.70516145322096       -6.61654029610712
H            6.64107602076281       -0.60271508606590       -4.43476093180583
H            3.86184567843525       -1.95471777541698       -2.57738443513465
