35
 energy: -6.725361673441 gnorm: 0.000669800988 xtb: 6.5.0 (97a52f5)
C            1.03137835728599       -0.41243619970810        0.44565861956084
C            2.47580181080189       -0.27552311210596       -0.00794259649252
C            3.42777665085182       -1.04604422743558        0.84358490066073
C            4.73219290264481       -0.76727855028975        1.08746802185818
C            5.48040192990641        0.41639807159187        0.60415768666702
C            5.26181511455777       -1.80711902305070        1.95436987525328
C            6.50918942631936       -1.95602876543963        2.49521361758112
C            6.83332765570891       -3.06274262809879        3.32649138795605
C            8.12076614129731       -3.20064125621205        3.87508328542291
C            8.41292443367105       -4.27991493331179        4.67649279952964
C            7.41124603996499       -5.26986500508393        4.95876672406502
C            6.14747398301874       -5.14105918804406        4.42545152935006
C            5.86696711025968       -4.05115865650640        3.62097506973396
B            4.47412449469243       -3.88396799453230        3.01441645529278
O            3.40835493850448       -4.77392369103756        3.20247412527851
N            4.25136221870413       -2.71815274451263        2.18741979423652
C            3.09543732980878       -2.30256233038340        1.51338448481563
O            2.03435268017200       -2.89390564617201        1.50605264042927
O            7.94579061126453       -6.24119889573917        5.77658391456224
C            9.29094062272112       -5.83835251444789        5.99535161685102
O            9.58547820747546       -4.62477663042103        5.31658051669361
H            0.33974558185859        0.13199360045923       -0.19966868131512
H            0.90488195054557       -0.04017825091441        1.46305063513323
H            0.72888433612567       -1.46128826926795        0.45450245848940
H            2.76981841124536        0.78073407735057       -0.01095033089920
H            2.58187604429069       -0.61640941582191       -1.04484642365192
H            5.17622664608817        0.68521553511495       -0.40770692624700
H            6.55242677239693        0.22182900936722        0.58393654740151
H            5.30462161956128        1.27557429484532        1.25183757305522
H            7.26510611628982       -1.22104973197402        2.29111086383074
H            8.88223099874408       -2.47086239427499        3.67461221165756
H            5.39095572836620       -5.87571348375595        4.63022335571865
H            2.73218176319662       -4.30824474398681        2.65896481803888
H            9.96276700451114       -6.62542385339278        5.62692629219316
H            9.44841436714794       -5.69175245280753        7.07250313728885
