43
 energy: -8.797868939991 gnorm: 0.000528309561 xtb: 6.5.0 (97a52f5)
C            0.74060752507884       -0.29909789327258        0.53658412181077
C            2.05403302630605        0.31146696156928        0.08361593860958
C            2.81918398209262        0.92889336057935        1.21496457176554
C            4.11637810493403        1.34377865470758        1.05180500946563
C            4.82364440978351        1.17177221792704       -0.26268658286751
C            5.65989964202396       -0.09740821513334       -0.31712959710300
C            4.81613452628448        1.90383670792883        2.17564348083214
C            6.14924178993150        2.32551443500292        2.11692883539620
C            6.77781889005468        2.85605222105991        3.22461362374537
C            6.10285099385286        2.98066122823746        4.41739071081309
C            4.77621036227675        2.57256086281675        4.53084729245491
C            4.13095626441123        2.02919467275731        3.39984269904966
C            2.77647951156320        1.59528443722045        3.49070608672022
C            2.11066609906209        1.71788076985720        4.69022492507070
C            2.71035481420682        2.25625512903103        5.84976128057312
N            1.98440276419101        2.32807904669442        6.96499831824303
C            2.62340246627858        2.84656595612502        8.02022958433560
C            1.93703102565495        2.96571167728204        9.24985499284324
C            2.54418670107769        3.48753777893474       10.35167212827986
C            3.87128191384537        3.91982580476925       10.28449245554556
C            4.56642492573974        3.82135256881228        9.11625722038774
C            3.97415514086096        3.28605469558844        7.95289537936434
N            4.70128595564235        3.20940434064873        6.82594764377489
C            4.06667487696140        2.69680150377130        5.78586207349910
O            2.12908527808892        1.05081958661547        2.39736136454041
H            0.18165204366797       -0.74398546480460       -0.28957991596805
H            0.10597228166857        0.45493456596299        1.00536741752351
H            0.91146350256736       -1.07624047300536        1.28353469558611
H            1.86940691626898        1.07795325812656       -0.67871153015593
H            2.67401444563389       -0.45428798569511       -0.39711014865571
H            5.44641628067034        2.05323464929882       -0.45621222769026
H            4.09282372793038        1.18089576741265       -1.07957792601900
H            6.42460256114559       -0.10017136005803        0.46111578677916
H            6.16433758191766       -0.21657545897657       -1.27813968310794
H            5.04298961501375       -0.98310953402820       -0.15666270973822
H            6.69894610224331        2.23085018689260        1.19783834987958
H            7.80517492860519        3.17394597137954        3.15666089306967
H            6.59013149681683        3.39314154933714        5.28342313237550
H            1.09139887560269        1.38713207539923        4.74749044658767
H            0.91556125228919        2.63057868757549        9.29352063380276
H            2.00203137162319        3.56868904305363       11.27942645332022
H            4.34411146662609        4.33230022244526       11.16056745553530
H            5.58850455950551        4.15218579015363        9.05695531972536
