12
 energy: -2.045766809329 gnorm: 0.000238138274 xtb: 6.5.0 (97a52f5)
C            0.89095251052347        0.01237245718848       -0.04615897895023
C            2.41031962806890        0.00467877831659       -0.03536703147509
C            2.99546861187575       -0.81669637301903        1.11682739875860
C            4.40632249682196       -0.83480712780234        1.14223307713508
N            5.56311231138224       -0.84025813788030        1.14987997229619
H            0.49002116509955        0.60182023465055       -0.87301538668040
H            0.49224084022470        0.43107926624364        0.87908828538064
H            0.49224047875313       -0.99883544339551       -0.14026628619522
H            2.79576578043657        1.03069684790008        0.02497661642610
H            2.79576545401475       -0.38693817019396       -0.98562533822792
H            2.62531060901143       -1.84761959342704        1.05960666955416
H            2.62531011378754       -0.42643273858117        2.07274100197808
