22
 energy: -3.338088377374 gnorm: 0.000404905560 xtb: 6.5.0 (97a52f5)
C            1.03092118258389       -0.00903294723887        0.05389271584696
C            2.55069487251943       -0.01625073524158        0.06268404941302
C            3.16041367327324        0.87082743437920       -1.01785124470074
C            4.66201617399582        0.84955215424412       -0.99193607553452
O            5.26349097474858        0.18876210669451       -0.18703346127560
C            5.38380022743700        1.68536023399069       -2.01002600463189
C            6.89938794951202        1.57685929226302       -1.87786555343764
C            7.64942627792622        2.41560257517755       -2.89953156283270
H            0.61326260009037       -0.64927544028310        0.83376399026686
H            0.64044112281579       -0.35976931605025       -0.90289424469699
H            0.64044159652302        0.99774219513807        0.21156790053632
H            2.93157137698618       -1.03837634647110       -0.06156548744952
H            2.93157189007381        0.30468696235134        1.04103845423650
H            2.81076110644338        1.90161859053268       -0.89547277141856
H            2.81076085367086        0.55003723753090       -2.00506976564028
H            5.07420021589729        2.73081866803954       -1.90551205860590
H            5.07419779960774        1.37923211852156       -3.01510837540701
H            7.18744165370103        0.52073164107810       -1.96071158410455
H            7.18744434169362        1.86381288165424       -0.85809830356561
H            7.39699353131293        2.11540876039880       -3.91790862620984
H            8.73208505977931        2.32497671322012       -2.78914319552605
H            7.39699551940845        3.47294522007049       -2.80342879526227
