18
 energy: -2.566691668351 gnorm: 0.000424560492 xtb: 6.5.0 (97a52f5)
C            0.95637689704172       -0.02742146035658        0.11988570094000
C            2.47588864622032       -0.06832306332796        0.08311846128996
C            3.06696479601275        0.92431272253414       -0.91748729646572
C            4.60214793564015        0.96097591980308       -0.92567937023312
C            5.22087762680403       -0.34962851420466       -1.40037752128564
O            5.07916391439982        2.06056737873642       -1.70094869365341
H            0.54409668594699       -0.74376223606018        0.83422169970234
H            0.53182400806669       -0.25804073293469       -0.85893099957894
H            0.59475582150913        0.96299202217640        0.40252626418900
H            2.81597400433019       -1.08325231219417       -0.15955968758594
H            2.88299726328816        0.13833915396717        1.08180763128848
H            2.69332779075293        1.93097813376694       -0.70020277315864
H            2.71031694241168        0.69670915176304       -1.92708284121870
H            4.94860768570480        1.17023146799615        0.10046294822516
H            4.86659592414267       -0.59957919042310       -2.39986184190260
H            4.97567856968612       -1.18138508952869       -0.73951835890680
H            6.30680026087856       -0.26784572351509       -1.44843648007138
H            4.81069522716324        1.93788237180182       -2.63874684157406
