17
 energy: -2.403169132472 gnorm: 0.000683491317 xtb: 6.5.0 (97a52f5)
C            1.00815574036844        0.03447660671866       -0.09548282428579
C            2.52811192035394        0.05959989859774       -0.06514553000087
C            3.08270561650884        0.96874449482706        1.03274058130519
C            4.61149814268301        0.99920627000337        1.06952336186971
C            5.15531297194990        1.90481088816716        2.16313315230461
H            0.62236097502844       -0.61770995641225       -0.88306512177131
H            0.59931575534941        1.03266712743732       -0.26720480334142
H            0.59931667012908       -0.32032932282733        0.85319367104127
H            2.92075893923161        0.38405439947181       -1.03823141029248
H            2.92076020222746       -0.95691397494689        0.07220570215051
H            2.69667853349052        0.64683107353466        2.00810447616428
H            2.69667658606503        1.98702235667912        0.89831087252906
H            4.99211134802274        1.31826450996648        0.08989527092526
H            4.99211327392934       -0.02272866370972        1.20035387209315
H            4.81605388238653        2.93438169917636        2.02930842378800
H            6.24799193496730        1.91940616680535        2.18075493427073
H            4.81605750730842        1.58138642651109        3.14970537125010
