84
 energy: -17.730388620183 gnorm: 0.000267853154 xtb: 6.5.0 (97a52f5)
Br          -3.24946021041464        0.41640090177812        0.16274508175866
C           -1.38782656212300        0.09593469391553        0.14309355622241
C           -0.60869519568084        1.22636486034774        0.13815014409736
C            0.79650067656009        1.16971785588628        0.12745432175762
C            1.53513092732133        2.41678032038150        0.13104619023833
C            2.86685531515069        2.55406911622828        0.01344829313208
C            3.59473409625149        3.80538305176967        0.01983118986601
C            4.96191110626041        3.80441637001987       -0.27552721534798
C            5.68693793837108        4.96905020557917       -0.27523256189507
C            5.08145249492633        6.18830921764846        0.02769010210225
N            5.83886297442610        7.40128893628665        0.03332982019925
C            6.92515063170810        7.57916918148805       -0.88879291640088
C            8.08942898488182        8.23575452682517       -0.49858926523745
C            9.12701399883040        8.41248778745783       -1.38593279024178
C            9.02097495231474        7.93804566436248       -2.67885406136121
C            7.87217891712403        7.28535070913439       -3.08134009327085
C            6.83343051168116        7.10721773058465       -2.19571899252952
C            5.52220888022119        8.44746284043743        0.96459660220894
C            5.60605606921134        9.78518167309252        0.58728416705702
C            5.30992299882066       10.78751283761691        1.48330203814185
C            4.92599440228316       10.47299529558809        2.77234457101973
C            4.83935517987719        9.15076993951292        3.16222026729926
C            5.13467710189246        8.14673661934499        2.26791463042110
C            3.71933711733208        6.19338736690973        0.32806827459290
C            2.99037893297706        5.03040828754959        0.32262627088859
C            1.38866367859519       -0.09977079805494        0.12280948067230
Br           3.25039094876128       -0.42038607833743        0.11616963654260
C            0.60955140972458       -1.23015909529385        0.13076380589700
C           -0.79565318646439       -1.17357407614075        0.14062973616705
C           -1.53366667623092       -2.42088248610954        0.15690513406314
C           -2.86730355625226       -2.55871636954559        0.06494517627968
C           -3.59399689358107       -3.81053979634018        0.08543163688731
C           -4.96785417655387       -3.80985856873740       -0.17711629792875
C           -5.69195748287279       -4.97497833816336       -0.16195181555061
C           -5.07862313372964       -6.19451239377019        0.12356806339539
N           -5.83466311266166       -7.40812847565637        0.14383446569832
C           -6.94343836464760       -7.58390083144709       -0.75154598229763
C           -8.09783345667672       -8.24105158418776       -0.33389848636583
C           -9.15725903629902       -8.41548330976256       -1.19550645775703
C           -9.08323252090811       -7.93824919013478       -2.48963396555103
C           -7.94452807831055       -7.28510487171192       -2.91921083099267
C           -6.88400417526156       -7.10918563926222       -2.05933312100640
C           -5.49438808857186       -8.45733963472609        1.06331313076889
C           -5.58509949527961       -9.79368343855952        0.68273576419967
C           -5.26719024368692      -10.79906994001821        1.56778422577727
C           -4.85430223039544      -10.48901235296094        2.84893852323569
C           -4.76042427948547       -9.16818621901325        3.24191010347341
C           -5.07735799144850       -8.16108009192569        2.35852310882325
C           -3.70970886693920       -6.19937576177733        0.39107923127668
C           -2.98182226739591       -5.03590750375838        0.37067360179829
H           -1.09661304917484        2.18734180116982        0.14186629495959
H            0.94151923925083        3.30871962390804        0.21724578874597
H            3.46582715096059        1.66176237086798       -0.10534030965223
H            5.44470310469553        2.87039295504683       -0.50701201446977
H            6.74009666793512        4.95383738639309       -0.49477200070445
H            8.16849779198025        8.59593599587946        0.51225605575633
H           10.02355783995761        8.92111063244757       -1.07112530072624
H            9.83345177708569        8.07755115556863       -3.37307810599095
H            7.78799696139645        6.91668835127858       -4.09061774770509
H            5.93117454897888        6.60999464193778       -2.50634437690185
H            5.89883722194887       10.02294612477105       -0.42044114074020
H            5.37702749053398       11.81910282897380        1.17845498182595
H            4.69496643746705       11.25835495322281        3.47333372065483
H            4.54205875269148        8.90475962856218        4.16856520951257
H            5.08080066480076        7.11504844439981        2.56875629067064
H            3.24354142074835        7.13156245405216        0.55422552725071
H            1.94359407988686        5.06245518299930        0.56628015354245
H            1.09755269610955       -2.19110089881080        0.12882351037409
H           -0.93800697728171       -3.31243562637766        0.23176808425672
H           -3.46921427910209       -1.66685549430997       -0.04134212135422
H           -5.45666543100591       -2.87568578181660       -0.39497499542644
H           -6.75006825035727       -4.95997392048931       -0.35622872702230
H           -8.15174542394142       -8.60345085769646        0.67781126829600
H          -10.04590737212800       -8.92444000690050       -0.85954457849584
H           -9.91280599330701       -8.07595451398539       -3.16370449718189
H           -7.88530970256308       -6.91435499393983       -3.92949851643614
H           -5.98954205459606       -6.61157925356886       -2.39118645882352
H           -5.90071616319936      -10.02786543497501       -0.31892027537786
H           -5.33993598641418      -11.82955212417584        1.26048848479257
H           -4.60641420206033      -11.27677621161467        3.54141179222608
H           -4.44062725656207       -8.92569135409968        4.24219517396179
H           -5.01800076198583       -7.13048520269936        2.66208071722227
H           -3.22799680054924       -7.13776156121219        0.60341399927861
H           -1.92935510583470       -5.06808043915823        0.58836862145601
