126
 energy: -25.026436461138 gnorm: 0.000823523095 xtb: 6.5.0 (97a52f5)
C            1.29503143705273       -0.25578369072682        1.04999268038975
C            2.57824645752144       -0.04747557665123        0.26234594110343
C            3.19834486637919        1.33073289801862        0.49497030702992
C            4.49343568843930        1.53865122651506       -0.28635952592929
C            5.10008681815926        2.94583419769791       -0.14853399643787
C            5.49673303023494        3.29635831710355        1.31044420450824
C            4.45835708066416        4.13792978221216        2.03507372710324
C            6.29677411086326        3.11892935749146       -1.08401350002875
N            6.78238302279484        4.48518003553436       -1.07854830832847
C            5.97525099110805        5.46760725369396       -1.66783049492846
O            4.88008954754506        5.19268467744322       -2.12618360163326
C            6.49320183647340        6.83912353446743       -1.70555680347510
C            5.76676959861357        7.84139877667411       -2.29963025760324
C            6.25752065876467        9.14329422873262       -2.35377260730884
C            7.47648855234035        9.44623396499217       -1.81744138078790
C            8.26123549830757        8.45396832487776       -1.19440926706780
C            9.54233246635135        8.73911290800764       -0.63102937065681
C           10.09035140535112       10.02823027105081       -0.70423996759072
C           10.55908999139496       11.15215423586912       -0.81968715392264
C           11.09516944161865       12.43800255745829       -1.00435726131221
C           10.28137890411030       13.50145810956833       -1.38855053768521
C           10.80980981929563       14.75325682187767       -1.59295690882596
C           12.17302290504939       14.98895225150684       -1.42439505211015
N           12.72724670133235       16.28807077190238       -1.66071958470611
C           11.95532449785351       17.45880179028349       -1.35227428270166
C           11.16322181721802       17.50667048539847       -0.20794450376336
C           10.41574244358774       18.62523696910492        0.08212679055166
C           10.44524377841260       19.71627325395309       -0.76403725728762
C           11.22652007517658       19.68467676191275       -1.90238224787512
C           11.97501826406299       18.56738892640697       -2.19480962180362
C           14.03189853546872       16.42311044768449       -2.23514523643151
C           14.49940405095576       15.50048384263754       -3.16921965610297
C           15.75147028551273       15.62877894776824       -3.71999478442116
C           16.58476553486555       16.68516824598016       -3.35942583513834
C           17.86673328110463       16.80973838753960       -3.92184436280200
C           18.98122706408695       16.90904751028051       -4.41611676896801
C           20.25540849988845       17.02833155388659       -4.99057434828943
C           21.16923227742964       16.00546070615176       -4.85019239145805
C           22.43971577382403       16.08735081500714       -5.40605427642805
C           22.83011648172543       17.19512491662989       -6.11883515168087
C           21.92494848319514       18.27100546871500       -6.29014625065872
C           22.30281970441464       19.42525489435580       -7.02204224708465
C           21.40806920220660       20.45526704389634       -7.17529422400560
C           20.13350913460697       20.38281617394548       -6.61943513001146
C           19.74926114780286       19.28080128196281       -5.90999720789419
C           20.62934823990766       18.19473831396430       -5.72514229476500
C           23.64352303243081       19.51235682518039       -7.61057508649201
O           23.99447263779941       20.50016543252124       -8.23188973648265
N           24.50751231982058       18.42478280627598       -7.42069137283246
C           25.81257377455274       18.47068273574691       -8.05067933429993
C           26.69999704112553       19.60953937046001       -7.53866567817084
C           27.02786269142763       19.44919019761579       -6.04106457891355
C           25.85003741054062       19.71971572487263       -5.12003857551696
C           27.97332384469423       19.72301223312396       -8.39949473912063
C           28.74864237605181       21.02555198358450       -8.20259861081305
C           29.96621637045725       21.13610490345050       -9.12114066169199
C           30.74118797611767       22.42801938237391       -8.91899990548548
C           24.17507756998307       17.27262059420221       -6.69358092433813
O           24.98399185414083       16.37516827008081       -6.53147993492897
C           16.11647574487439       17.61048337448240       -2.42918265546074
C           14.86395861274473       17.48259244951684       -1.87826536411591
C           12.98498380099925       13.92662062746089       -1.03131328456587
C           12.45623333404194       12.67517161454911       -0.82633629560518
C           10.24991690633457        7.72035045092944       -0.02895008528552
C            9.74563773944433        6.42732778812013        0.03453030626177
C            8.52199573229734        6.11753582067292       -0.50839572467991
C            7.75764938944291        7.13264636333377       -1.13458595895547
C            8.00670724114208        4.74763973201600       -0.44839160161359
O            8.61351651585595        3.86767786849485        0.13773039181424
H            0.86139661793925       -1.24261825121614        0.87439916232149
H            0.54152769768498        0.48636028353465        0.78078098766308
H            1.47102588450617       -0.16066367052764        2.12287573413841
H            2.38936460759773       -0.18377772850250       -0.81056769802402
H            3.31120805498513       -0.82266958464921        0.52169670483861
H            3.38333500668289        1.46729538169974        1.56635913429266
H            2.47555857615607        2.10935199242175        0.22358317170383
H            4.31067118721346        1.32961025798157       -1.34678483457847
H            5.23744063067777        0.79833187009865        0.02676678357330
H            4.34207092546163        3.67823062260602       -0.47229168160894
H            6.45405999556098        3.83419568791113        1.29604872932248
H            5.70732124186686        2.37201811969813        1.86223247690682
H            4.29910853961382        5.08821723893614        1.52128313676013
H            4.76026924706894        4.36711597005727        3.05927583090532
H            3.49140414438473        3.63570591585426        2.08395570704741
H            6.03066488741528        2.86047426684188       -2.11308626279896
H            7.11523897653465        2.45851081387602       -0.78372043425219
H            4.80969460586018        7.59728132863250       -2.72795227813578
H            5.67092816507261        9.91412673577011       -2.82584364921562
H            7.85388226407300       10.45256224102186       -1.86524252084394
H            9.22870906903028       13.32648661004174       -1.53052187858878
H           10.17740492780808       15.56584522483692       -1.90453956981013
H           11.15148075970276       16.65628849278041        0.45117118955983
H            9.80705113052314       18.64971041841159        0.97112332633633
H            9.85916305399986       20.59143717439575       -0.53626446713655
H           11.24878724096548       20.53521407357858       -2.56382132635946
H           12.57713081627468       18.53180774265811       -3.08576348666909
H           13.85696460820534       14.68948741162202       -3.46398429885046
H           16.10369370016146       14.91090560298931       -4.44077337604472
H           20.88311451523269       15.12735425098605       -4.29685855137055
H           23.14288959403661       15.28077472919888       -5.28761942318857
H           21.71342610245729       21.32096856224104       -7.73774861169243
H           19.44811104741843       21.20370957173159       -6.75187074092320
H           18.76344631688210       19.22890939178827       -5.48221995315603
H           25.64887531164720       18.56637684659358       -9.12811426517304
H           26.30562487269890       17.50777894145331       -7.88942900896822
H           26.12786207278441       20.54352031656200       -7.65882220149743
H           27.85341040363535       20.11936480440675       -5.77532514052079
H           27.41613506568099       18.43738545418296       -5.87406622845052
H           25.43374958433377       20.71340529942096       -5.29364107142100
H           26.13021427009468       19.65746287590158       -4.06644748240780
H           25.04582943482402       19.00312105122635       -5.28195737685787
H           27.70105581761348       19.63054580118451       -9.45724423573882
H           28.62211136256196       18.86501786523033       -8.19401811957741
H           29.07245160618949       21.12144929236081       -7.16054108240356
H           28.08140807596364       21.87889522719687       -8.37334744540417
H           29.64097167867662       21.05025241705125      -10.16622670441083
H           30.62306534194074       20.27184925669378       -8.95679786696981
H           30.11314263196749       23.29931482598819       -9.11268090178969
H           31.60794043067861       22.49456984838344       -9.58010492931279
H           31.10367434753550       22.51447835029479       -7.89318894436450
H           16.75407478460478       18.42981223212882       -2.14456421197893
H           14.51394492506165       18.19517971572105       -1.15230642989540
H           14.03560329703348       14.10394162418516       -0.88237449931691
H           13.09202369451392       11.85918829979878       -0.52837646989830
H           11.21623968548720        7.93901383496422        0.39234156619133
H           10.31061384630654        5.64098854802194        0.50518543802777
