80
 energy: -16.083184105751 gnorm: 0.000893215977 xtb: 6.5.0 (97a52f5)
C            1.35601580095760        0.15234290197664        0.73155832836862
C            2.85694874400430        0.01329071823109        0.53476187002551
C            3.21660124831804       -0.76849728281212       -0.72900268850763
C            4.72360089114230       -0.90955037108075       -0.93516357809774
C            5.10894351381727       -1.76539056492135       -2.15310659314681
C            4.61721958459825       -1.15712057284955       -3.49602405567492
C            3.37398892897966       -1.83623839450628       -4.04590414893153
C            6.61533527701349       -2.02630524370299       -2.19906078862904
N            6.94714068775152       -2.98085885604878       -3.23880344876052
C            7.51937090223536       -2.49888902901876       -4.42395129421710
O            7.73074350171991       -1.30866318288264       -4.58159139707276
C            7.82653547200800       -3.47240538233059       -5.47589996525113
C            8.41645654049892       -3.06821001666473       -6.64881316620534
C            8.69377262827217       -3.98318804855672       -7.66038511923341
C            8.37899545766132       -5.30384322212474       -7.50550650753651
C            7.77279094237624       -5.77032730750228       -6.32112408627650
C            7.42321730441391       -7.14228870969779       -6.13372454338613
C            7.64384503359952       -8.09378719650559       -7.13972229396664
C            7.79504161752169       -8.91437359107963       -8.03452791863881
C            7.92333347514364       -9.84897673660874       -9.07582349888288
C            7.28763208015037       -9.63644725022637      -10.29715703278001
C            7.39109642280510      -10.55496492598392      -11.31363952304650
C            8.13348020977705      -11.72272773646632      -11.14902445992516
N            8.22456021257837      -12.68615992035283      -12.20260126606895
C            8.17421727515211      -12.26434341670783      -13.57396902122423
C            8.82442696629036      -11.10465666977027      -13.98827216248983
C            8.77243238546436      -10.70271407601601      -15.30362629462548
C            8.07179436461284      -11.45083829035320      -16.22925772878655
C            7.42413854658489      -12.60502176995072      -15.83475557413542
C            7.47537111624542      -13.00964336688203      -14.52028286800672
C            8.33361482717026      -14.08515623503827      -11.90040524591622
C            7.63094193949707      -14.64318086208788      -10.83540265568860
C            7.72804370099696      -15.98777658462082      -10.55765156275735
C            8.52698807367556      -16.80016436784063      -11.33806411456607
C            9.22816885499705      -16.26249245501575      -12.39942044622260
C            9.13226311198346      -14.91840509494253      -12.67964408345921
C            8.77494596277071      -11.93103014140087       -9.92931470792406
C            8.67148043235525      -11.01265084719328       -8.91206549377402
C            6.83509968720540       -7.52626480647745       -4.94629428829015
C            6.57098254760681       -6.60861286817564       -3.93831830024469
C            6.88561611147965       -5.27900521777048       -4.09100076062506
C            7.49702540148000       -4.83909018465809       -5.29083887241905
C            6.58225046628390       -4.31766070859854       -3.02935474169483
O            6.01609715395102       -4.66364730650026       -2.00614981760243
H            1.11033955650638        0.70722021389106        1.63962942699170
H            0.87633926615317       -0.82540087049481        0.80419028582843
H            0.89491995707073        0.67554891160388       -0.10805537498811
H            3.30846652257291       -0.47912449182779        1.40601663507474
H            3.32620503523519        1.00501009036864        0.49336327045380
H            2.76486637933692       -0.27803346862596       -1.59885159049162
H            2.75786239156866       -1.76370626947511       -0.68803487240998
H            5.17202911282283       -1.34301161870244       -0.03371621387111
H            5.17944901562083        0.08123554709682       -1.03570768307538
H            4.62782877462916       -2.75118605428902       -2.03904232323095
H            5.42665187017409       -1.22524694501857       -4.23425517749031
H            4.45071365049335       -0.08041648670287       -3.36958767406979
H            3.55894627769687       -2.89556396990967       -4.23234032561475
H            3.04753450252492       -1.39104480990749       -4.98809353619996
H            2.53896185610762       -1.77487361586392       -3.34736981598210
H            6.97300872429309       -2.42823525229924       -1.24662991009619
H            7.16166450138957       -1.09812974394994       -2.38849584911635
H            8.65727945880201       -2.02590709095997       -6.76990764307162
H            9.15792424233632       -3.64401975914000       -8.57183351614873
H            8.59271599342845       -6.00687821596485       -8.29137856464603
H            6.70601649170607       -8.74062341558801      -10.43179659692247
H            6.88240085814021      -10.38966551890727      -12.24690792466580
H            9.37763652661359      -10.53219603891998      -13.26444507167092
H            9.28081743698628       -9.80367478519036      -15.61130532829254
H            8.03110975463658      -11.13457060027135      -17.25862441418202
H            6.87730712595719      -13.18954160368495      -16.55636116814180
H            6.96766731911569      -13.90428406177933      -14.20478182053736
H            6.99906123670533      -14.00807137472809      -10.23967137672170
H            7.17775774111704      -16.40743667801328       -9.73152009187492
H            8.60152548564325      -17.85291527242845      -11.12004925720493
H            9.85072220834366      -16.89608965619948      -13.00965582643683
H            9.67836768014857      -14.49271380698393      -13.50322405148785
H            9.36316436937054      -12.82208830124790       -9.79761268557308
H            9.16888436978612      -11.18377235245615       -7.97283069801765
H            6.57212795819279       -8.56131193297391       -4.80935264304209
H            6.10743094558152       -6.92276550878557       -3.01883467670440
