118
 energy: -21.940701083388 gnorm: 0.000328419011 xtb: 6.5.0 (97a52f5)
C            2.29491965397037       -1.66990501787204       -0.35506984351756
C            3.71539676936339       -1.17787954423043       -0.12839586433804
C            3.95647983879576        0.21712002561267       -0.70568431339895
C            5.38420148867166        0.71870362483813       -0.47991211627816
C            5.64796611629287        2.14370570578518       -1.03123863703040
C            5.39986867238149        3.24693409633408        0.01871940380458
C            3.97498602558669        3.32455189776170        0.53947800726564
C            7.07476522844320        2.25975653925773       -1.60991841702697
C            7.30793644738549        3.56124815884491       -2.28792853667845
C            8.02060768114763        4.60649595827947       -1.79835355846739
C            7.98064725290634        5.76824271356510       -2.61489264232419
C            7.20868039312121        5.64613438231196       -3.74095485179125
C            6.83742150825754        6.65291105456721       -4.72794803600225
C            6.96252796141531        8.06286607621526       -4.53377672531318
C            7.41766316767665        8.74053023977340       -3.35987335755232
C            7.45257780618398       10.10381167795601       -3.44231237015386
C            7.89972952862173       11.02798752833520       -2.44701655629272
C            8.50198161935199       10.71780388411164       -1.26373943651420
C            8.75388341109047        9.38626699251909       -0.92239276832134
N            8.95963337811031        8.27443220461208       -0.64869617152924
C            8.94088927911667       11.74254707894119       -0.31184759778838
C            9.60000236110963       11.36096172228546        0.86122658448745
C           10.03489577123942       12.28844491460939        1.77010714312004
C            9.83591186226447       13.65670793645855        1.55911281136503
O           10.31479130748905       14.53575047407777        2.52933828166815
C           10.10073329388102       15.89777690839288        2.24868370614869
C            9.17159395686702       14.04264283646660        0.38935440343325
C            8.73653147363315       13.11123919725740       -0.51909822749590
S            6.84567171038398       10.60184978825893       -5.00264530289732
C            6.57223089246443        8.96511842851072       -5.54573279274877
C            6.03431689654946        8.56005641657356       -6.77148738391069
C            5.54576579119111        9.51384115588558       -7.75404807772860
C            5.71299020805335       10.87322939318637       -7.77593600285798
C            5.03959733669612       11.52941019232691       -8.84312950112561
C            4.34917966552290       10.69177204697401       -9.65828538598742
C            3.52767746147696       11.09006232144082      -10.83153636025804
C            4.33681240903642       11.64737413797318      -12.02917382714327
C            5.00602469560809       10.53465001051480      -12.86346411063791
C            6.03434782699104        9.70423757663361      -12.11349353357507
C            3.43356667226755       12.53661165424572      -12.90937520225101
C            4.18568670177606       13.36895279158481      -13.94809878529692
C            3.26816630982126       14.30538552935628      -14.73589339195688
C            4.01768857042057       15.13295128035586      -15.76754411124347
S            4.57420259872596        9.05675508955407       -9.12350035823229
C            5.90672218259301        7.15332283038058       -6.96563603615009
C            5.44979161911651        6.48687119689003       -8.14836558934846
C            5.43589451356927        5.12447100360426       -8.07696075341802
C            5.10217877302058        4.18273744813524       -9.09891073474680
C            4.86209514127893        4.44226099641628      -10.41520352122660
C            4.92987028849162        5.74133288591278      -10.92401191909596
N            4.98690209472815        6.80981105878600      -11.37920449541382
C            4.56520907516781        3.37952469603802      -11.38148838084692
C            4.38327228885661        3.70329693687709      -12.73007188778609
C            4.12343622593748        2.74022365704380      -13.66814038371922
C            4.03032823546963        1.39086666241060      -13.31252138428056
O            3.77250789032946        0.47231794939817      -14.32911949502758
C            3.72880545949609       -0.87126665582344      -13.91354033670888
C            4.20430617613855        1.06252013117106      -11.96322436760317
C            4.46359953069127        2.02989079681135      -11.02540323128986
S            5.92596161026297        4.61499551762252       -6.46901071942931
C            6.27983220697995        6.25391451422301       -5.94739274186108
S            6.66205803606968        3.97861005895339       -3.85075589630325
H            2.13651342919961       -2.66991579973822        0.05427187169781
H            2.05610590360250       -1.70902190482900       -1.41928626622302
H            1.56735850922497       -1.00453411865002        0.11309085967955
H            4.43434857935625       -1.88146376024647       -0.56817120050612
H            3.94588701938764       -1.17053952101016        0.94502937676381
H            3.23285952963460        0.91732931189267       -0.27652389161750
H            3.73598838365401        0.21204118281051       -1.78009919647463
H            6.07914750353088        0.01292964548902       -0.95029502130075
H            5.63357814154489        0.68879476194140        0.58634556057067
H            4.94780504633082        2.31365353963040       -1.86508838765705
H            5.68014445995774        4.21440729362963       -0.41707363084500
H            6.09830884176011        3.10048295779313        0.85127181319273
H            3.25916370864954        3.41338469734039       -0.27947961987834
H            3.82856290744349        4.18625166937729        1.19457446453435
H            3.71002916733069        2.43869225767023        1.11790255829835
H            7.25770319392479        1.44963254565613       -2.32411027007307
H            7.80537978953506        2.12391320892955       -0.80616142174381
H            8.53261887204739        4.57255312460480       -0.84863183357037
H            8.51747177392816        6.65730645097864       -2.33517637513736
H            7.66965893508435        8.22806846104267       -2.45483744655684
H            7.75689178090977       12.06329732669476       -2.69356166406081
H            9.76711883885934       10.31362011127904        1.04359068776273
H           10.54310372165773       11.98241663182347        2.66729398242699
H           10.52142159883831       16.48907277440972        3.06270351019834
H            9.03112658800708       16.09985937977167        2.18115598219034
H           10.60237052152145       16.16893734324305        1.31894311173561
H            8.99784975725325       15.08587637832372        0.19834875790281
H            8.22623242977470       13.44768371178393       -1.40300357529485
H            6.28511379930598       11.40945671888770       -7.03880351100527
H            5.05457257607308       12.59961366567587       -8.98380214919836
H            2.80152745582222       11.83970206259473      -10.49752280720930
H            2.93115656378560       10.23491142412296      -11.16538411692357
H            5.13415643615660       12.28660153019319      -11.61841990387805
H            5.48324324450595       10.98468408160292      -13.74182093667328
H            4.22290057926355        9.88293242818154      -13.26901636112902
H            6.78149762538568       10.33580647130081      -11.63039309969059
H            6.56152085651761        9.01224958053245      -12.77370527790658
H            5.56666567454771        9.09674566857256      -11.33912764349143
H            2.85730545921592       13.21274250026834      -12.26716907550379
H            2.68645402412654       11.90735589965255      -13.40476306463790
H            4.71710369741072       12.71397816712235      -14.64720091815513
H            4.96924001228412       13.95442181873996      -13.45229639430827
H            2.73603237744856       14.96439550584781      -14.03737096708564
H            2.48132738179855       13.71523650557920      -15.22380722924854
H            4.78200355114909       15.75317153522080      -15.29608038184243
H            3.35233834522722       15.79734609512825      -16.32306217293622
H            4.52447346557870       14.49432605260608      -16.49310010032446
H            5.20035552083628        7.01038548549419       -9.05170116039752
H            5.07799643496301        3.16005154454519       -8.77175027491307
H            4.45602656815416        4.73450226307054      -13.02878586793608
H            3.98979341425857        3.00248803628879      -14.70263857545413
H            3.54384844640785       -1.49777531252816      -14.78677179401774
H            2.91768964311115       -1.01311029434373      -13.19844968108090
H            4.68466689334254       -1.15489361242081      -13.47142589234411
H            4.13370475382750        0.03536910775257      -11.65499438489207
H            4.58766591794437        1.73661664365535       -9.99904330525042
