120
 energy: -24.373738419294 gnorm: 0.000951503730 xtb: 6.5.0 (97a52f5)
C            1.05775142426897        0.59498509701001       -0.65023726443015
C            2.41434741185993        0.08276655035321       -0.19363782139245
C            3.02696566969255        0.93869633462972        0.91537755591759
C            4.38876903087632        0.42205007445397        1.38318615678820
C            5.03264083450427        1.26757422078695        2.51211893796093
C            4.69006693310057        0.75533537336845        3.92359350626175
C            3.20871923399680        0.75573647699725        4.25908884868173
C            6.55301760993047        1.34709226698152        2.33730345151353
N            7.17342193811014        2.22671237471007        3.33256111013728
C            7.07294586945724        3.62270752832176        3.33704546234196
C            6.49078290888139        4.50390250287514        2.42618878274731
C            6.51200435415931        5.85908816373134        2.69072647198831
C            5.92062510119861        6.75466051436960        1.78637910347020
N            5.42718480200278        7.48852663849070        1.03274817955068
C            7.12216223676205        6.33463266914132        3.86917002631632
C            7.69978157807403        5.48135746279443        4.77400478567418
C            7.67699057838390        4.10924472260518        4.51130111100594
C            8.15585728683262        2.96750399233736        5.24850361286501
C            8.80706386219293        2.84708825106597        6.47819694979133
C            9.11463488292036        1.59317638893457        6.93995525303517
C            8.78928537578506        0.43194603916528        6.20711974889276
C            9.11924151364592       -0.83594020882863        6.72239412595175
C            9.42095823653569       -1.91980192299558        7.20143818867231
C            9.79741344865390       -3.12894947689647        7.80784037601314
C            9.48875110326561       -4.34180109030054        7.19574151646770
C            9.84168173372895       -5.54497437847062        7.76019173301829
C           10.52889627177674       -5.59103249055357        8.97649121611610
C           10.90880969729847       -6.82167078763158        9.58884017178938
C           11.57621375236632       -6.84155901658225       10.76502833160326
C           11.92431035574809       -5.63575374724889       11.44645132106798
C           12.61924016079117       -5.64176815117796       12.67642313864316
C           13.00297891455658       -6.85635113475811       13.26640211668269
C           13.28928185179724       -7.98054245851696       13.65308567190065
C           13.55650340232913       -9.33320663031043       13.93501927003024
C           14.42590793254338       -9.72063488602164       14.97627229970884
C           14.70007623204585      -11.04148484986943       15.22923289324516
C           14.10603188588468      -12.01906114344382       14.42569020405331
C           14.18708682575787      -13.45811110240235       14.41093671558119
C           14.89108593104328      -14.36971072597452       15.20150098704798
C           14.77269625100359      -15.70787685301709       14.92741876800751
C           13.96311880809271      -16.17670216449136       13.87311638321418
C           13.86788064829287      -17.55213787432447       13.61122057657682
N           13.79307355497433      -18.68988751023343       13.38768010074354
C           13.26453575980945      -15.27906524500455       13.08991228925461
C           13.37229217608999      -13.91393226460221       13.35569864914434
N           12.81347299328087      -12.79857178683611       12.71713948395923
C           11.92312696580673      -12.80343585343459       11.55084427270808
C           12.53497086581674      -12.12583950246268       10.31410571311371
C           13.64518377533395      -12.98410638021653        9.67698503360778
C           14.92306404314331      -13.04227304046071       10.49709971550336
C           11.43585801539157      -11.75260880574062        9.29833603786089
C           11.88803272790792      -10.74511938395753        8.23996688030415
C           10.75167931030646      -10.29156204931259        7.32237911965381
C           11.20129652776055       -9.26779200282972        6.29215859429944
C           13.24212695386161      -11.64373858301100       13.38091092188144
C           12.96123426969252      -10.29933718903198       13.14690142234415
C           12.92459477889825       -4.43021958188530       13.29153841283879
C           12.56675285895193       -3.22780822115103       12.72870516538364
C           11.88103947143457       -3.18165907841394       11.51129903976012
C           11.49828889915899       -1.95091020006559       10.90074532487696
C           10.83554394230491       -1.93055747377149        9.72158080940575
C           10.49004879006575       -3.13587874905262        9.03873594310983
C           10.85666820304651       -4.37473359898141        9.62190986145165
C           11.55616840527282       -4.39744467657732       10.86379073262285
C            8.14652249809181        0.55007443460830        4.98852878279996
C            7.82889296600368        1.81882119172497        4.50247427108759
H            0.63353238173284       -0.02054163915962       -1.44644472643107
H            1.12844300699188        1.61681524596566       -1.02711660910108
H            0.34186060630804        0.60513981797236        0.17357967923635
H            3.10809081755373        0.03986054967502       -1.04359691410844
H            2.32851977547693       -0.95481743192267        0.15510748813871
H            2.33005931398377        0.99587166335547        1.75767095877994
H            3.12831058342069        1.97336807203172        0.56561949509688
H            5.06528045429920        0.39628342909836        0.52039183977642
H            4.30949467506157       -0.62110785455906        1.70836064492135
H            4.63993754378577        2.29333092413063        2.42783769909873
H            5.23189059367493        1.36784979177448        4.65579625920393
H            5.10263737679715       -0.25414018005988        4.03937846213827
H            2.76789053594270        1.74147718572185        4.10095606230318
H            3.02776856148559        0.48081163573203        5.30064012379664
H            2.65813362034510        0.04365532684683        3.64296675048873
H            6.81297842720981        1.71920690336692        1.34282118846615
H            6.99297134508162        0.35127311544402        2.41942535497816
H            6.03213356692970        4.13422503928353        1.52798391261133
H            7.12522444775484        7.39584190741822        4.05018039181931
H            8.16095243199430        5.84744173267227        5.67411996236529
H            9.05219147482728        3.72871370177356        7.04352909121662
H            9.61450226257810        1.47718746663286        7.88631668347091
H            8.96044475917107       -4.32319521657148        6.25771738722630
H            9.58880903549536       -6.46821825785368        7.26815176824063
H           10.64947479684682       -7.74272384411602        9.09729514608335
H           11.85487972093969       -7.78044601647739       11.20962217467045
H           14.87948060342669       -8.95183067017720       15.57771624302772
H           15.36260209796305      -11.33306433589659       16.02480007356456
H           15.51221782454595      -14.01496798177116       16.00479244347281
H           15.30573583075211      -16.42971775496910       15.52220722057677
H           12.64993767595684      -15.63130916490139       12.28269923942492
H           11.00226613533088      -12.29388419360275       11.84724374249715
H           11.63906666651444      -13.83074397835515       11.31529174018916
H           13.00250903791411      -11.18692365386415       10.64735417833950
H           13.87682955783475      -12.59495729396445        8.67838859988744
H           13.25459429958492      -13.99394788930028        9.50305899884880
H           15.32306216359648      -12.04283784212085       10.67654008424340
H           15.70243877754152      -13.62448019451194       10.00075205112027
H           14.75214110993771      -13.49762415746862       11.47134446414637
H           10.57655022277650      -11.33466148995445        9.83585415005989
H           11.06026907234665      -12.66330927140417        8.81981001225808
H           12.69731433857335      -11.16735215034735        7.63398599849389
H           12.32909794294629       -9.87033351978550        8.73311324260636
H            9.93535285538194       -9.88117944869258        7.93119444048510
H           10.31800832725726      -11.16737872954263        6.82200967553499
H           11.61485736939181       -8.37880416258420        6.77165730894369
H           10.37974130683395       -8.94232945591749        5.65029490636637
H           11.98125150231300       -9.67455673728834        5.64609145121157
H           12.28343146226440      -10.01508234235855       12.36380322248866
H           13.45425191430282       -4.44894351903821       14.22874518247887
H           12.81413059059006       -2.30448285822254       13.22336858787087
H           11.74787275957952       -1.03002317272799       11.39872927886573
H           10.55558543310644       -0.99179767646759        9.27688988034460
H            7.89372837216400       -0.32777642111153        4.42389676002546
