73
 energy: -15.056197110215 gnorm: 0.000484036857 xtb: 6.5.0 (97a52f5)
C            1.21749119772219       -0.95591005525728        0.46673543602453
C            2.57639837864795       -0.35039101623708        0.15410587741053
C            3.11617621279179       -0.78100783041833       -1.21020115047410
C            4.47781384095893       -0.16296320903398       -1.53220761373795
C            5.04781787651564       -0.55870015272542       -2.91803088730071
C            4.63499480130574        0.41274801998024       -4.04049957992553
C            3.13876480504995        0.52086234943649       -4.27967604967105
C            6.57521463325019       -0.67724011605570       -2.86140066401753
N            7.14627970564807       -1.10397380604674       -4.14264853258763
C            7.67554584061395       -0.25726355455272       -5.12528138171194
C            7.87554498285509        1.12334217617474       -5.14287014086405
C            8.40396137167871        1.71519833337690       -6.27318360026891
C            8.59987138409656        3.10451975232560       -6.30580260877362
N            8.75741090294245        4.25546988240948       -6.32830053984724
C            8.73876724535101        0.92255748161052       -7.38943821233641
C            8.55013353611804       -0.43563437919119       -7.38833180744797
C            8.01172276490242       -1.03691721314335       -6.24809594501664
C            7.67559510764224       -2.40300542775015       -5.93580497836626
C            7.78672489279738       -3.59028300153245       -6.66261945629981
C            7.37069253452531       -4.75987079619783       -6.07974558418126
C            6.83485663700317       -4.78982984124716       -4.77463375222768
C            6.43909034068797       -6.01721105455726       -4.20876384041349
C            6.13553124794697       -7.10665716029726       -3.74428515834245
C            5.83947984864182       -8.38865820493423       -3.25132503982882
C            5.01695127102313       -8.53352087467820       -2.13655913721935
C            4.70888564015477       -9.77163901861769       -1.62244374416959
C            5.21538972995368      -10.93539915789720       -2.20575767487786
C            4.91619072831603      -12.23656072788530       -1.69593736840549
C            5.41847929488147      -13.34992370912062       -2.27562667158604
C            6.26909543345135      -13.26830750124688       -3.42195889311176
C            6.80168772796279      -14.40191460668805       -4.03849245626282
C            7.61989739468368      -14.28602654653910       -5.14302108076991
C            7.93045792982229      -13.04697109677594       -5.66350053535447
C            7.42400653114349      -11.88207739651037       -5.08451705024934
C            7.72420548354538      -10.58127674439941       -5.59492798683473
C            7.22156901571308       -9.46901034039214       -5.01448864099819
C            6.36975751474985       -9.54227733419550       -3.86829950996477
C            6.05381828064043      -10.81841391787754       -3.33964374224989
C            6.58341476810586      -11.99250734995171       -3.95057102606728
C            6.71809594062089       -3.61343359670329       -4.05690898612593
C            7.13958145025059       -2.41539230542018       -4.63412729703383
H            0.84278683962880       -0.64157063819330        1.44327202687803
H            1.26198819514178       -2.04638475251887        0.46771707196302
H            0.47523804456804       -0.66516695036883       -0.27878295382840
H            3.30057119882375       -0.62241238654219        0.93320581931061
H            2.51878622096315        0.74544239925289        0.19105674567250
H            2.38672425088945       -0.52610504024347       -1.98518237068020
H            3.19174982548788       -1.87456391842977       -1.24675241869075
H            5.18745540636888       -0.46235025884309       -0.75149364247161
H            4.42634214456165        0.92892743893530       -1.45967167897718
H            4.65121976068242       -1.55372690857500       -3.17537489691087
H            5.13047164662330        0.09983792596248       -4.96849148422582
H            5.05171262197317        1.40228386145543       -3.81732942295037
H            2.69181041111615       -0.46143855104851       -4.44197636450046
H            2.91121925641231        1.13158468803026       -5.15632949244457
H            2.62953189946175        0.98299110020479       -3.43298669813157
H            6.88351110667684       -1.39035017448195       -2.09242314937762
H            7.01464642950495        0.28307677206465       -2.58386704488679
H            7.62184510567774        1.72268474516542       -4.28856451277143
H            9.14992334315511        1.40960289978962       -8.25698883211713
H            8.80350989760918       -1.03762454204801       -8.24290411022039
H            8.19511963026095       -3.57342230536264       -7.65755191119589
H            7.45216620204430       -5.68741277958787       -6.62012608732412
H            4.61920496880844       -7.64641955880135       -1.67374027691525
H            4.07117633644373       -9.85564758621469       -0.75946639124058
H            4.27755402440593      -12.31568056005700       -0.83327401134442
H            5.18311754333533      -14.32207547033382       -1.87843189372300
H            6.56561781713507      -15.37334190826791       -3.63963037952895
H            8.02129251668556      -15.17353387786727       -5.60428204362512
H            8.57002704166332      -12.96678857763256       -6.52548645928162
H            8.36360249390536      -10.50216014987725       -6.45698282275405
H            7.45982324921824       -8.49848307691739       -5.41292582699423
H            6.31636034600089       -3.62291080978554       -3.06079747525258
