86
 energy: -16.572623825117 gnorm: 0.000221865671 xtb: 6.5.0 (97a52f5)
C            0.94592415391083        0.82273689363818        0.34547890735047
C            2.42323051333793        0.48111931539643        0.23760014966758
C            2.93948997982176        0.56142734557188       -1.19807516036626
C            4.41296171906681        0.18049455977990       -1.32355827813931
C            4.99919826132603        0.21147352311861       -2.76023578518610
C            5.16259570893399        1.61231042341995       -3.34530703526893
C            5.56636987466704        1.73039564473772       -4.66582122610254
C            5.76237249904156        2.96825911773370       -5.24132674860374
C            5.56948695245800        4.11163873741714       -4.49554322739321
C            5.19178072816223        4.01096283510954       -3.17314910907601
C            4.99863600554137        2.77097956616410       -2.59928880772558
N            6.36884976432729       -0.34617560306473       -2.66572604876571
C            6.58748187107324       -1.70125832351631       -2.66640929803571
C            7.77547346267418       -2.26685934645148       -2.14700404141037
C            8.82036104491775       -1.41962067126438       -1.53672006957505
C           10.16106580295912       -1.55527846089171       -1.90667150140096
C           11.13193990653223       -0.76175357479837       -1.34876678769883
C           10.81256253682277        0.20433802763967       -0.38841893436107
N           11.80709492584878        1.02456081248855        0.17714823964064
C           13.20220962245606        0.94117802338671       -0.25283930926322
C           11.48795155306000        2.01581383239591        1.20360241260356
C            9.47201466086835        0.32735080310978       -0.00775966547939
C            8.50208117826303       -0.46742874902186       -0.56457612941965
C            7.92630883550292       -3.65011154649241       -2.19706976542869
C            6.93995986235269       -4.45403626858233       -2.71765746894824
C            5.76059246667523       -3.91634178822588       -3.23507375045328
C            4.71861755037899       -4.79856953380812       -3.79363980037878
C            4.36938971019166       -5.99468373673735       -3.16051670163297
C            3.37478488157478       -6.79605848823806       -3.66204184837959
C            2.67931959871275       -6.44500988698875       -4.82490817050297
N            1.64529946826814       -7.25479816544046       -5.32636494142693
C            1.24433406620278       -8.48822190876281       -4.65069025339615
C            0.88457667875714       -6.87282125667066       -6.51546653810520
C            3.04214122060517       -5.25584580590288       -5.46693187171036
C            4.03690662804193       -4.45722296776955       -4.96381530996497
C            5.58087286521052       -2.51590998510461       -3.21397002691884
N            4.43690390926399       -1.97182079449867       -3.78143876259797
C            4.15649616941508       -0.71048683676581       -3.65246919815499
C            2.91859519002935       -0.26877967568506       -4.29465015017093
C            2.45959445249799        1.05351372816141       -4.31907114940286
C            1.27179377096376        1.38560094453781       -4.92873978262485
C            0.50375155251892        0.41130009303170       -5.53458360332820
C            0.93203457046825       -0.90090823167360       -5.52624004005707
C            2.11915444979720       -1.23300065934485       -4.91561984775020
H            0.58322208822566        0.75999883468753        1.37398566781651
H            0.33971770060473        0.14468801575238       -0.25845461732230
H            0.74776760783675        1.83491181312252       -0.01227379370133
H            2.60800650895061       -0.52662908797448        0.63307662977092
H            3.01629548979547        1.14989405505397        0.87550590656339
H            2.77273218344275        1.57050803007552       -1.59051139679301
H            2.33535196060161       -0.09639209675060       -1.83384594778984
H            4.54717113939270       -0.83661350256178       -0.94040177820011
H            5.02735778801643        0.80850678020562       -0.67211317149583
H            5.72323315663409        0.83354563771181       -5.24049676294431
H            6.06738267992044        3.04100669874552       -6.27255219308248
H            5.72097808159686        5.08082159747348       -4.94244046889082
H            5.05242525750448        4.90334205787015       -2.58464176134605
H            4.72534996558220        2.70882120524872       -1.56105381662734
H            7.05420339301041        0.31644740389081       -2.30859070692410
H           10.42197565114494       -2.28587561902539       -2.65304519021088
H           12.15600467697423       -0.88342023104107       -1.65360860235219
H           13.61094908458612       -0.03711452291507       -0.00585673671574
H           13.81147024042912        1.69877970843168        0.23626498817635
H           13.27193036512977        1.09551458148727       -1.32821181853797
H           11.00269052953736        1.53423152222836        2.05075522050589
H           10.82226429996338        2.77438710762994        0.79540969493546
H           12.38669386656647        2.51032802828319        1.56706256489988
H            9.19867451157899        1.05750429661457        0.73292284680770
H            7.47901818432941       -0.37693317463826       -0.24174012527323
H            8.82478521185340       -4.08881106965946       -1.79832696663003
H            7.07999176866586       -5.52077440835785       -2.74769217912996
H            4.87692014380101       -6.27029256599667       -2.25215619302479
H            3.11785989424278       -7.70558469034330       -3.14900965524160
H            2.08690826867884       -9.17536248871559       -4.59620760099785
H            0.43631887965605       -8.98553120866484       -5.18370320666320
H            0.89983524762400       -8.26600808390684       -3.64214787637763
H            1.54707879926169       -6.80456261992680       -7.37656838609942
H            0.40471348694087       -5.90840647849250       -6.35767216136503
H            0.11031961788350       -7.60374899126826       -6.74037591462000
H            2.53147006452267       -4.96434055618816       -6.36736296210488
H            4.31182219931593       -3.54856540066353       -5.47095419856008
H            3.04229462853644        1.83038371969099       -3.86403442665723
H            0.94038298940898        2.41138998347438       -4.93621202790676
H           -0.42565528455185        0.67437754894601       -6.01291902488490
H            0.33583193716934       -1.66569981348363       -5.99693265701544
H            2.44747511211594       -2.25686397718236       -4.89961275865036
