85
 energy: -18.254104902915 gnorm: 0.000476475620 xtb: 6.5.0 (97a52f5)
C            1.05125307300583        0.02865478022264        0.40311129292453
C            0.19952851880917        0.88213827254800       -0.20459372076527
C           -1.22681550850506        0.86839711297859       -0.08529637468276
C           -1.92869213106184        0.00583348373049        0.74720818458783
C           -3.31825550871992        0.02293855590873        0.84406338970344
C           -4.10767634589697        0.90065787388570        0.11182824186524
C           -5.53683993903027        0.94053914411565        0.18254718326096
C           -6.30571273238426        0.21689247127549        1.02427153352404
C           -7.74820418791125        0.25321124370529        1.06926608542189
C           -8.42435669566791       -0.42765527629759        2.08931088328872
C           -9.79366662631435       -0.41906822093427        2.15863564793864
C          -10.55398711487379        0.26061891629662        1.20675590299692
N          -11.98201275831921        0.25773622287512        1.27451538806861
C          -12.64144368525762        0.25485424518864        2.55003963214105
C          -13.79990964398313       -0.49069197859887        2.75217221375400
C          -14.43079986448998       -0.48977062897416        3.97571458299617
C          -13.91768078494248        0.25585351712788        5.01911226341263
C          -12.76995970289372        1.00157558107575        4.83393037614047
C          -12.13703469598234        1.00180855875205        3.61157398969586
C          -12.76307541299740        0.23878229562296        0.07013885530419
C          -13.96299016606572        0.94032894699718       -0.01220626598834
C          -14.71641929916170        0.91001272877157       -1.16396272812088
C          -14.28650615524171        0.17910059092197       -2.25426474145025
C          -13.09853133318127       -0.52229240394203       -2.18818646612308
C          -12.34356971855319       -0.49360408621708       -1.03753700772022
C           -9.88575301688827        0.93719953287301        0.18577150380151
C           -8.51562346354173        0.93798677199186        0.11825151431709
C           -3.43853547215372        1.81631883517803       -0.77491308390915
N           -3.99853287450116        2.71758216725831       -1.55289048197792
S           -2.80018273813252        3.50908421200435       -2.35656473203447
N           -1.52086159663274        2.69738191322872       -1.71402109203064
C           -1.98973418387165        1.80404049171437       -0.86951003257860
C            2.48967679702158        0.06815624493360        0.28671028874586
C            3.25606383034302       -0.95907064154800        0.85129953306274
C            4.62441748264995       -0.95024269475687        0.76467736761560
C            5.29385895273688        0.08973389179592        0.11937248598815
N            6.72122188798814        0.10606713676361        0.04613758168309
C            7.45135639536523       -1.12649430788203       -0.05439558616811
C            8.64781780907889       -1.30411004299620        0.63532057077220
C            9.34664285466128       -2.48593722837560        0.53583059976997
C            8.86480974108030       -3.51114851938058       -0.25453088744565
C            7.68006725769227       -3.34976123655923       -0.94595742523364
C            6.97910011089515       -2.16916262285783       -0.84752655896454
C            7.43539725841706        1.35008188609614        0.10471761801482
C            8.59314081773564        1.54193789742883       -0.64467469213548
C            9.28460033700867        2.73039765378450       -0.57720514587122
C            8.83363869313748        3.74886192749972        0.23959451115127
C            7.68727639448547        3.57370008867761        0.98976265236166
C            6.99445055833667        2.38607151791200        0.92424639087971
C            4.53530673590044        1.11726692046200       -0.44236168732096
C            3.16578234075424        1.10801430832980       -0.36424559193718
H            0.64395117706537       -0.75450295895412        1.01562721787394
H            0.59982548378258        1.63779834515459       -0.85470690745418
H           -1.38094574099565       -0.69914503838309        1.34609764991105
H           -3.79573139681442       -0.67718015050181        1.50555455811299
H           -6.01263262442603        1.62989252237887       -0.49004918872497
H           -5.82269241865866       -0.43097036022361        1.73238458973740
H           -7.85224353279092       -0.96234310571306        2.82808847500726
H          -10.30203238178996       -0.95235309366718        2.94272860340319
H          -14.18959967042279       -1.07559335623486        1.93748472141459
H          -15.32576179294738       -1.07269581491802        4.11981710759617
H          -14.41258090317904        0.25620705811252        5.97648068622954
H          -12.37021608144916        1.58562071944129        5.64675052543840
H          -11.24815299227335        1.58827795108241        3.45743937268351
H          -14.28870151338212        1.51316656766231        0.83835467066498
H          -15.64318997906835        1.45777712908649       -1.21484820744254
H          -14.87741908263500        0.15519328003213       -3.15522896816139
H          -12.76309663127125       -1.09461319342833       -3.03761105257735
H          -11.42353773726787       -1.04806830259214       -0.97535884594824
H          -10.46647386415421        1.47129337009027       -0.54585373746142
H           -8.02758676902734        1.46197018125770       -0.68366565795118
H            2.75498501573225       -1.76566328326418        1.35855928655226
H            5.20274434921879       -1.74051429224471        1.21032274378999
H            9.01316014368950       -0.50425197452545        1.25535767570467
H           10.27042685515771       -2.61150323139165        1.07656232106313
H            9.41286788907093       -4.43587134596541       -0.33206292888106
H            7.30470022502871       -4.14828042731159       -1.56486340280275
H            6.06059767680458       -2.03280398001892       -1.39120698240234
H            8.93530123763941        0.74673732062152       -1.28364878278844
H           10.17917595479244        2.86616213689951       -1.16272390445424
H            9.37603108036174        4.67863765780575        0.29252150182715
H            7.33569785589449        4.36692312835767        1.62911948072752
H            6.10811799358963        2.23878507366742        1.51624517508413
H            5.04490233674267        1.91756553906075       -0.94990246464702
H            2.60772534805033        1.91817787801788       -0.79781929385445
