100
 energy: -20.123702243200 gnorm: 0.000473113445 xtb: 6.5.0 (97a52f5)
C            1.50334025409782        0.19237345929144       -0.77943225818087
C            2.99894984993625        0.13625033813087       -0.51319872550483
C            3.39936907540607       -1.08084164265518        0.31789346687635
C            4.89924001652052       -1.16371334272915        0.58413748062489
C            5.27373628775569       -2.39220263787167        1.44706988378387
C            6.77330431557434       -2.52787845681611        1.70248074393134
C            7.24157440039491       -3.69760138982875        2.27817419698134
C            8.58171694933372       -3.86459381944837        2.55690636650553
C            9.47472718558395       -2.85363375011375        2.27133307345671
C            9.02165309648032       -1.67600963108372        1.71475990867438
C            7.67978558032148       -1.51107198902106        1.43821410577960
N            4.63893762801616       -2.20118337176406        2.76688905418593
C            3.53089347210895       -2.88916148157048        3.18864379194233
C            2.88171455846616       -2.55853768764537        4.40135295986547
C            3.33855786416497       -1.42230745740796        5.22527392557025
C            3.48308817525280       -1.55181718283566        6.60913968907697
C            3.91323647206986       -0.49858286164203        7.37761068748537
C            4.20960114083442        0.73888925237417        6.80141684436730
N            4.67703769862312        1.83111370670162        7.58199796301977
C            5.18752922728257        1.57693604547060        8.92935690909951
C            4.65847713674507        3.18301328756391        7.10449990739567
C            5.76026969209224        4.02209675767269        7.27382837715720
C            5.73200100835857        5.32031599867831        6.81624381095550
C            4.60570563782265        5.80895411308451        6.18263891396191
C            3.50468135061048        4.99292060260761        6.00868576505552
C            3.52879324564086        3.69472360338398        6.46540769349881
C            4.06058926699284        0.86843025412747        5.41910940638973
C            3.63098233054213       -0.18317604069969        4.64981972783430
C            1.78093301651435       -3.31595764589153        4.79189635696068
C            1.31640205699156       -4.34732104669388        4.01163491227592
C            1.93682022154154       -4.68599530735218        2.80839813325839
C            1.41508665175913       -5.79624221685180        1.98970027019226
C            0.04022861189894       -6.00255304214603        1.84576232105222
C           -0.44569870165566       -7.02567023250826        1.06996784414121
C            0.41912456554552       -7.89960061932108        0.40633386625114
N           -0.06771391181354       -8.94939616672496       -0.41580774082305
C           -1.46860010032819       -8.93854893335820       -0.83730515285450
C            0.76024854255054      -10.04066328465000       -0.84232671576174
C            0.77070293322734      -10.45711451265348       -2.17364680925510
C            1.56288967405096      -11.50962906767213       -2.57390664351110
C            2.35727854353168      -12.16912669207234       -1.65577547624844
C            2.35694151949548      -11.77145506935506       -0.33274709764260
C            1.56704388760139      -10.71916726001477        0.07126601492555
C            1.79261925521393       -7.69329205017490        0.55044903523834
C            2.27708951897199       -6.67026909079453        1.32444713014955
C            3.06737070200765       -3.94951695228926        2.39076361219841
N            3.69742319330181       -4.30480640101587        1.20815526675814
C            4.72561184165395       -3.64970701736629        0.76526604339205
C            5.27326011809710       -4.10058189042701       -0.51052251355908
C            6.42784956497792       -3.56881070579328       -1.09482320756124
C            6.87992965658612       -4.02267025893812       -2.31245196382540
C            6.19720006635638       -5.02023433130485       -2.98052375892363
C            5.05897564083507       -5.56651541888791       -2.42136328569314
C            4.60568347531784       -5.11353173386912       -1.20412611492202
H            1.22378049035639        1.06440624305524       -1.37490618680736
H            0.93812415771806        0.23582405739084        0.15351310002706
H            1.16541591990379       -0.69523634271273       -1.31775988977476
H            3.32849856947675        1.05007321367346       -0.00119656472740
H            3.55273104462594        0.12566493865907       -1.46143200678670
H            3.06497376101391       -1.99590452093646       -0.18593332524837
H            2.85797966707357       -1.07265826405702        1.27132363850848
H            5.22643903480536       -0.25473484370539        1.09742587423041
H            5.44260631979498       -1.19469077187893       -0.36443653255294
H            6.53785938921236       -4.48029905224540        2.50423421589771
H            8.93003883709255       -4.78421042324159        2.99814864962550
H           10.52315941386061       -2.98141491180606        2.48677740936894
H            9.71706422721863       -0.88124437621170        1.49850009280714
H            7.33874365988403       -0.58415460554981        1.01220649308899
H            5.15536641079730       -1.57114463022787        3.37875558178328
H            3.26685589780118       -2.50167137610478        7.06719523548362
H            4.01934175852722       -0.62560608508320        8.44008997460776
H            4.38225334237102        1.23473835340915        9.57665269821385
H            5.60112169623741        2.48436965767811        9.36446535336823
H            5.96896059679074        0.81965757968596        8.89830920291398
H            6.64581382744661        3.63388261675610        7.74583567749821
H            6.59179985417828        5.95649265148874        6.95013287505321
H            4.58591288533539        6.82545141932920        5.82471251230391
H            2.62460456131763        5.37411395168476        5.51675924228399
H            2.66751970251526        3.06016525862985        6.34832785595489
H            4.30628122075557        1.80697382589005        4.95483479592362
H            3.50176455316814       -0.05812661647644        3.58855929380325
H            1.27851741602035       -3.06743646086120        5.71084088432967
H            0.46633890476805       -4.92162419673697        4.33708061036021
H           -0.64190862252078       -5.33000408977624        2.33655186582076
H           -1.50823173811175       -7.15925759115994        0.97277169784828
H           -2.12073238678542       -9.06309422335434        0.02511910751787
H           -1.66920370292835       -9.75516760722453       -1.52796128121436
H           -1.70442134703910       -7.99868701945403       -1.33335046972806
H            0.16736470253912       -9.92851552810232       -2.89083481623608
H            1.56535344709792      -11.81838506904036       -3.60663408769708
H            2.97603236829992      -12.99344169359537       -1.97104594797711
H            2.97355369189574      -12.28796524813404        0.38475308012977
H            1.54969492647697      -10.41505834288129        1.10344600007325
H            2.47429132268508       -8.33882691893610        0.02559856059228
H            3.33836314028512       -6.52625235942561        1.42859122845803
H            6.98499596002194       -2.81074590366146       -0.57787714123793
H            7.77292664418321       -3.60107892874710       -2.74470173287522
H            6.55408388688723       -5.37339370443736       -3.93428436966398
H            4.52533074702351       -6.34764580881001       -2.93796661565441
H            3.71823637868518       -5.53570398058953       -0.76681983567432
