50
 energy: -9.760250935394 gnorm: 0.000977637588 xtb: 6.5.0 (97a52f5)
C           -0.01156273434829       -2.92532350829722        1.19611136761879
C            1.09282993491894       -1.99946617438650        0.71203185708494
C            2.44270157285554       -2.70658386863093        0.60100320764322
C            3.56189855317059       -1.78500950214893        0.12068520342583
C            4.96947008949324       -2.42686519684709       -0.01238955411268
C            5.08394678726116       -3.47580589923004       -1.11732358726816
C            6.24781774659479       -4.22440981914494       -1.19684547034489
C            6.42476886223822       -5.16143730204825       -2.19310366879219
C            5.44002727102024       -5.35322738737252       -3.13840086262654
C            4.28662589380025       -4.59906237971773       -3.08871405994340
C            4.11368742079447       -3.66041114439677       -2.09193925885363
N            5.89035426816468       -1.33197039926910       -0.40975987177831
C            6.54023972009713       -0.56594306457547        0.52864074168035
C            7.12667419235856        0.66051472493554        0.20751567822092
C            7.74577469061869        1.40942542833582        1.17734902022890
C            7.79418252379325        0.94776925529258        2.48322452854826
C            7.22744092609075       -0.26326951478357        2.81095006293241
C            6.59190264420216       -1.04283065601745        1.84928539784804
N            6.08846581855652       -2.29089863588725        2.20454679107946
C            5.39119222396798       -2.98393585990300        1.35933605470780
C            4.92787581669414       -4.28681737993083        1.84624066519827
C            4.24447595669360       -5.23242349816084        1.07379874451968
C            3.81678502597435       -6.42290098687306        1.61546706653566
C            4.06192248563309       -6.71161026163702        2.94264715647270
C            4.74279386679422       -5.80179229750172        3.72543748576085
C            5.16873738519250       -4.61044939361215        3.18373334140891
H           -0.97201796447169       -2.41224095582972        1.27792979951781
H            0.22462334607241       -3.33991564779869        2.17737459304649
H           -0.14649843556052       -3.76736581353393        0.51575232311049
H            1.18884194119929       -1.13887906963093        1.38745394591973
H            0.82692582424732       -1.56823142522086       -0.26232566575686
H            2.34630093125797       -3.56736964573820       -0.06936989337153
H            2.70730952413376       -3.12981049181283        1.57686620882241
H            3.65247271448001       -0.94557214732194        0.81786131344251
H            3.28926069933914       -1.32721606264750       -0.83455489549321
H            7.01757429020276       -4.06375109737436       -0.46155109945961
H            7.33289240910094       -5.74053730608481       -2.23327098057168
H            5.57503882965546       -6.08448632246047       -3.91879738849436
H            3.51980801770330       -4.73898967380938       -3.83321647232814
H            3.21849909828583       -3.06440961762317       -2.08014266311026
H            5.71774925530254       -0.97720418701944       -1.34940002496922
H            7.08114919220950        1.01001984526074       -0.80904955013940
H            8.19424519385949        2.35612528103532        0.92391901453422
H            8.28250802063738        1.53561608834159        3.24310455026758
H            7.27522454406521       -0.63435122242559        3.81979465788772
H            4.05453556361058       -5.03832005895374        0.03642391665311
H            3.28935539189871       -7.13410720601117        1.00092592208434
H            3.72567451288891       -7.64456600401813        3.36493601268856
H            4.93860124733579       -6.02289960554245        4.76194968674399
H            5.69447690988570       -3.89712293198060        3.79409865179148
