55
 energy: -10.578297877495 gnorm: 0.000581851485 xtb: 6.5.0 (97a52f5)
C            0.29757169897871       -0.85745743372738       -0.56299824764385
C            1.68605380783166       -0.67045089078296        0.02701971884523
C            2.56063401005050       -1.91597736743219       -0.11692880281914
C            3.95435903418379       -1.74935353706144        0.48070915837388
C            4.79430311435736       -2.98132561062740        0.33592824958273
C            6.12890521448151       -2.96964858550856        0.65057434087933
C            6.80388633183189       -1.71215641498028        1.11700858126302
C            7.51146307467065       -0.96810665732605       -0.01573520204063
C            8.24095654506448        0.28924484790825        0.45536692953329
C            8.94527467462246        1.01793700099960       -0.67757836873227
C            6.89861555881459       -4.16999146505979        0.47003707697762
C            8.26981782033100       -4.24892589534041        0.73908570977296
C            8.96690787882729       -5.42385346103567        0.54570085035328
C            8.32393831863402       -6.54815098359808        0.08004624875574
C            6.96097377265054       -6.52237910153218       -0.20548763495346
C            6.24529757290339       -5.32251597396317       -0.00806386037896
C            4.85114499431252       -5.26619949274926       -0.29871619488289
C            4.21700336115844       -6.39497537656150       -0.76883863680643
C            4.88716887063249       -7.61947388484097       -0.98340408251456
N            4.18650614798939       -8.65437318042902       -1.44634231954734
C            4.89288673433502       -9.77685364467052       -1.62595153290072
C            4.23950729657373      -10.92970075029354       -2.11775392129817
C            4.91518544759616      -12.09551528406891       -2.31700719530085
C            6.28156902693334      -12.17357112903052       -2.03449438572484
C            6.94681888770237      -11.08293935519684       -1.55913869897799
C            6.28397928528197       -9.85644806635019       -1.34108976347910
N            6.98475749108677       -8.80896860157604       -0.87571843543310
C            6.28418062632800       -7.70162772335162       -0.70103364986280
O            4.13412560501656       -4.09757342669200       -0.12029372467954
H           -0.31849054576574        0.03805538807252       -0.45585786852379
H           -0.23050450803794       -1.67955806785325       -0.07632132000940
H            0.34944716720622       -1.09457335349054       -1.62724124534405
H            1.61249233943388       -0.40042471077652        1.08885657350504
H            2.18839490222525        0.18224885490433       -0.44897029838432
H            2.65065912437764       -2.18976030017475       -1.17505787975796
H            2.06763644325930       -2.77545150151997        0.35342943842229
H            3.86991365405650       -1.49374569924441        1.54252947481184
H            4.45752568355807       -0.90339339429735        0.00040922101591
H            7.51608477152766       -1.95238453860344        1.91365263336213
H            6.07777238528273       -1.04970892096943        1.59932696574186
H            6.78442410762614       -0.70517780751875       -0.79310902946301
H            8.22033775376703       -1.64157156008612       -0.51170220969444
H            8.96299036409811        0.01741197118897        1.23664351082953
H            7.52586240082594        0.95955412285874        0.95024409899038
H            9.67972379278495        0.37390683767475       -1.16428496342398
H            9.46982253388394        1.91035136486596       -0.32922431727435
H            8.23653240177505        1.33276583680350       -1.44555029984408
H            8.79447734026065       -3.38210291576501        1.09889062472867
H           10.02245717870659       -5.46239701012156        0.75955373712965
H            8.86473408591207       -7.46582398732697       -0.07218907220331
H            3.16715446387160       -6.34174072130534       -0.98458012030354
H            3.18744200052332      -10.86151999228572       -2.33260903813375
H            4.39672705030499      -12.96191051245402       -2.69369180579186
H            6.80830585422828      -13.10032247875247       -2.19292340312823
H            7.99872505113946      -11.13567545894568       -1.33901561363171
