20
 energy: -2.847020620688 gnorm: 0.000631377263 xtb: 6.5.0 (97a52f5)
C            1.00567630444602       -0.00361341293171        0.03541987476786
C            2.52589738437870        0.01107358937834        0.06577877246808
C            3.08619386766510        0.63088878876212        1.34700030161768
C            4.61457849796919        0.64876889063769        1.38396010212960
C            5.17489303031423        1.26858306180201        2.66517763278198
C            6.69512100392331        1.28327203967293        2.69553922879802
H            0.61617563661733       -0.44834431160465       -0.88388517775543
H            0.59869823197514        1.00737330589749        0.10826375351051
H            0.59869808801064       -0.57402376596137        0.87329425469328
H            2.91646400284552        0.55787584939560       -0.80303743436117
H            2.91646414166178       -1.00951961345400       -0.04477991686508
H            2.70233616787793        0.08591691613949        2.21854285127633
H            2.70233593975281        1.65248396329619        1.46068648545696
H            4.99843674638314        1.19373791728404        0.51241661162831
H            4.99843653877265       -0.37282491195814        1.27027249920116
H            4.78433875821442        0.72176153506938        3.53398591773824
H            4.78433764891770        2.28918197538688        2.77571610544111
H            7.10208849274152        0.27228226898293        2.62268505541380
H            7.08464243574021        1.72800002327472        3.61483689533688
H            7.10208708179266        1.85367589093006        1.85765618672185
