310
 energy: -55.051280273476 gnorm: 0.000730129427 xtb: 6.5.0 (97a52f5)
C           -0.95902792086247        2.62830012595980       -2.23691492503584
C            0.17695687715714        3.52752032670306       -1.95612459298815
C            3.39736645877041        2.95944678749895        0.93169114300173
C            4.06045988018139        1.92755522720720        0.09425644866812
C            4.16798439226890        2.32585976357625       -1.37881263129724
C            4.99555955627148        1.35987939035886       -2.25630067242379
C            4.36385371156133       -0.05512634125744       -2.35295483759511
C            4.83416680884938       -1.02198235656091       -1.27498658943522
C            5.43241457585851        1.96046995223141       -3.66394115279812
C            4.53685632541554        1.55978365988707       -4.89923459943394
C            3.05060003730348        1.96614421192130       -4.73987658647770
C            2.06543730126948        0.98272219963989       -5.34536362995148
C            5.14763683335563        2.12980899742076       -6.19876380157336
C            4.53155488899253        1.61813543627705       -7.49875881264513
C            5.30819422978668        2.08049450187046       -8.73229864550709
C            4.72559364717871        1.55268158537103      -10.04329790569795
C            5.48813817982820        2.03873972682708      -11.26536912408632
C            6.88100614182509        1.51168449863133       -3.91637735905425
C            7.40493800839477        0.24474655975824       -4.08247265166654
C            8.76457085451217        0.10098921911032       -4.29264031088323
C            9.59533489781709        1.20924080658606       -4.33810216379876
C            9.08193139605893        2.47997752480747       -4.17528537499345
C            7.71880484742936        2.62930092836628       -3.96010080233148
C            6.91462004453258        3.84602958158028       -3.79858503827178
C            7.27699555325512        5.18456097692054       -3.89542505203338
C            6.29510328197239        6.15284392949507       -3.83877026821260
C            4.95138825250266        5.80657292964562       -3.68341603227065
C            3.90022680487497        6.74408421038572       -3.72370342002592
C            2.84352730517002        7.34533857792102       -3.85957124976756
C            1.53673629293511        7.80513240087746       -4.09732708325047
C            1.21252446245388        9.14457154580485       -3.92321862873388
C           -0.06688655494743        9.63331880497974       -4.15132702122458
C           -0.38859632913404       10.98123599816411       -3.90639384398122
C           -0.89274966755206       12.06944086161849       -3.66320814620655
C           -1.71723449263959       13.17668739955344       -3.37397236674661
C           -1.35964384781482       14.15800422041679       -2.44771319915614
C           -2.21532209475200       15.19757328794730       -2.14705448843825
C           -3.46696343696545       15.24055136467214       -2.74930283447413
C           -3.85561008467570       14.24948446139757       -3.64931408205760
C           -2.96409107308082       13.25222665595470       -3.99251158934941
C           -5.28820863537932       14.53004210427773       -4.15399657540025
C           -5.22309417319932       14.57309360913667       -5.72936464428691
C           -6.54288104696220       14.86868502669646       -6.49160648162360
C           -7.29067767540435       13.62584556852987       -6.93965285587745
C           -4.12306299863476       15.55569393010168       -6.19723032519987
C           -3.59706743505785       15.26486118371165       -7.60248690446086
C           -2.47595964820251       16.21475099324636       -8.02156598357369
C           -1.93139577820565       15.91638754691549       -9.41890576443814
C           -0.81265074667242       16.86121812142520       -9.82824485702363
C           -6.23769400516347       13.43821209797497       -3.51214258774278
C           -7.76958100918864       13.70273072502492       -3.60538515385112
C           -8.37478115284325       14.18422565363964       -2.29595385208026
C           -5.89421026730316       11.98998355652942       -3.91161984171251
C           -6.40428926842700       10.94138285070801       -2.91712951622117
C           -5.68127177874526        9.60544231363567       -3.07999787652222
C           -6.07323050834142        8.55729988410380       -2.04301686512790
C           -5.26153849809709        7.27691731493801       -2.16493933321542
C           -5.57860893938901       15.90614581256669       -3.52294965891432
C           -6.66498780471591       16.75703956656805       -3.62683342864182
C           -6.68340026346603       17.93722711969913       -2.90520934291631
C           -5.62854410539121       18.27946674367992       -2.07722330145586
C           -4.53845217722867       17.44425802941185       -1.95809997789232
C           -4.51873981759997       16.25777183574353       -2.67835499976778
C           -1.07739386428519        8.74281963122100       -4.58575339180531
C           -2.39856405837017        9.19029984572038       -4.86933102580990
C           -3.37067943073308        8.32519461410130       -5.23672782437114
C           -3.12713193672245        6.92534238921620       -5.32778635483247
C           -4.16570978623928        6.00750375085356       -5.60803407807221
C           -5.48476658302823        6.47973032856637       -5.73950123560006
C           -6.53020474891995        7.11581389490769       -5.73757548045665
C           -7.54582595439613        8.09047658700806       -5.65004875354839
C           -7.44429197069819        9.23187340389179       -6.44587871651817
C           -8.35821364934482       10.25363356068855       -6.33829318391321
C           -9.37092032291835       10.15387770145018       -5.39606385589567
C           -9.49714705838812        9.02462517186295       -4.58525710760969
C           -8.59443751381014        7.98613919750553       -4.73367960589638
C          -10.76714580116059        9.16362759405149       -3.70808467304458
C          -11.74194876521965        7.97812337688253       -4.08115299964415
C          -13.13967237572382        7.97018882924585       -3.40058967558868
C          -13.22960701343939        7.23483787876308       -2.07132391530736
C          -11.92156074095921        7.89887652372518       -5.61700514634673
C          -12.35627049355560        6.52372894631778       -6.12288383699956
C          -12.46114271040335        6.46605926468368       -7.64640961273935
C          -12.87649257824470        5.08976957650473       -8.16674814809603
C          -12.97481486003848        5.04064761501060       -9.68329558244468
C          -10.30691983658247        9.20958079138323       -2.19393297072315
C          -11.27630476835796        9.94876440222594       -1.23128115349759
C          -10.91183759441636       11.41377885008754       -1.03380920288129
C           -9.87296548246967        7.84023703109178       -1.63117298573454
C           -9.14188084402977        7.91613096753081       -0.28766412507546
C           -8.51129971251528        6.58191662568329        0.11095506715616
C           -7.68945899719081        6.66855569805527        1.39695269882050
C           -7.04733700409326        5.34274910061338        1.77319545641653
C          -11.32856876733198       10.52867633460162       -4.17241541359593
C          -12.46205232293118       11.24201486852941       -3.81589041663528
C          -12.71662654895278       12.47263774944830       -4.39473193763643
C          -11.85727708480600       13.00387845338700       -5.33900272036436
C          -10.73202338817617       12.30658736939157       -5.71889397026233
C          -10.47290930207859       11.07521759883693       -5.13271359555970
C           -3.86836309880268        4.65404205312394       -5.67914817978178
C           -2.58235221709998        4.15998634007518       -5.49302772814387
C           -2.38908683868782        2.76733671275564       -5.53494545987489
C           -2.34160532835472        1.54482010632677       -5.52222151378905
C           -2.42698415099012        0.13814961390042       -5.47390572611804
C           -3.57073224729141       -0.49739045895870       -5.95971287728371
C           -3.69403656670907       -1.86816841129828       -5.92211401539477
C           -2.66433194037513       -2.62118890449645       -5.37574959311557
C           -1.51839759540004       -2.01015438221219       -4.86567676992878
C           -1.39937466178165       -0.63423470044669       -4.93218109392112
C           -0.54415302344704       -3.09513212609257       -4.34480075898130
C            0.81718101554730       -2.95282831485825       -5.13001872817272
C            1.93427392351206       -3.99054793896253       -4.82427365655124
C            2.91007989191860       -3.60213924447512       -3.72289386884487
C            0.55113704010177       -2.91408157280987       -6.65398084265878
C            1.66746003501834       -2.25027279863185       -7.45923308924663
C            1.31805697299605       -2.09008716477350       -8.93778946671174
C            2.38698898259787       -1.32449262624220       -9.71676158070297
C            2.03789254194657       -1.15191149581961      -11.18625008425191
C           -0.45054903430361       -2.91146510477070       -2.77693447090825
C           -0.06066385511234       -4.18366586303576       -1.97598465545159
C           -1.26355853199077       -4.97711954107077       -1.48640338179173
C            0.39163723987531       -1.69676809223593       -2.32567702684036
C           -0.03049975029329       -1.14479807477901       -0.96370709612120
C            0.93169526417941       -0.07773218609443       -0.44159809594960
C            0.49817030091603        0.53462290467103        0.83892919540165
C            3.46768806424277       -1.00093806534242        2.55331886701934
C           -1.28766732482538       -4.39687479986768       -4.71924313392993
C           -0.94388296977664       -5.73288027366011       -4.59270590440662
C           -1.81908576019580       -6.71466721302543       -5.02206727594509
C           -3.03903402493474       -6.38169292783017       -5.58280568005760
C           -3.39955640917379       -5.05919504316655       -5.72238748692605
C           -2.52283164890732       -4.07369767837607       -5.28929090677785
C           -1.52937238529443        5.06331051527730       -5.21031375757907
C           -0.18904748630829        4.62917124258755       -5.00473255053079
C            0.79187129178074        5.50116181967451       -4.66984106429425
C            0.53210319029103        6.89249649791076       -4.50197605243874
C           -0.78083922536282        7.36538718874096       -4.73904907911423
C           -1.81241919958970        6.44858406562445       -5.10404344176929
C            4.60643159602691        4.46337077670996       -3.56048528694834
C            5.57761591486104        3.48726378926634       -3.61798555707768
H           -1.48739492775336        2.33361907293097       -1.32617695049852
H           -0.62874383952244        1.71534169289853       -2.73849383150931
H           -1.68883241307531        3.10484617742313       -2.89572213624833
H            0.92957734771728        3.10293028624760       -1.32035340474452
H           -0.10448795976440        4.49147315489971       -1.57568953251744
H            3.91980873378513        3.89607523494788        0.94456951225242
H            2.37479563810940        3.13638042010661        0.66161179763487
H            3.51062778394116        0.98509055808763        0.18601385934813
H            5.06129123944892        1.71729978374650        0.49407113769963
H            4.61932811850526        3.32311018405036       -1.42154790087682
H            3.16394755670053        2.44488051497062       -1.79250758114334
H            5.95023261318822        1.23170603244173       -1.71877719312378
H            4.59672145203513       -0.49671811849187       -3.32718764280357
H            3.27147293565482        0.03867059917238       -2.34404330952139
H            5.91299578580628       -1.18028851929927       -1.33364965838799
H            4.35696319516487       -2.00055939647308       -1.36733813937241
H            4.62441901356645       -0.65595458055792       -0.27107357650971
H            4.57619788158991        0.46620643846093       -4.98658099502541
H            2.90530391157796        2.96326074457268       -5.17285772126663
H            2.81701882081445        2.07956941173919       -3.67768244221084
H            2.21675597809452        0.85709539903876       -6.41642371956772
H            1.03245847802310        1.30705607763936       -5.20478138978672
H            2.16937988443428       -0.00090585321464       -4.88581856493416
H            6.22096836955688        1.90756497628611       -6.21397837368724
H            5.08990448844067        3.22352155699343       -6.17021883785062
H            3.49269475389245        1.95633269911978       -7.58201884194415
H            4.48672712437989        0.52225073220676       -7.48062582548170
H            6.35668017676963        1.76933892420641       -8.64544230557201
H            5.33905139223145        3.17688698598053       -8.75700858230993
H            3.66953530624522        1.84582151019135      -10.11526333251687
H            4.71759622722163        0.45501634568918      -10.01791952190845
H            5.48085918722064        3.12877643848588      -11.32800665940272
H            5.06280664374939        1.65331085391680      -12.19514722462292
H            6.53370178809107        1.72619713551025      -11.22830939764513
H            6.75837547324917       -0.61438626007648       -4.05153719945124
H            9.18177187719652       -0.88430873316099       -4.42317986414611
H           10.65233533290399        1.07849305909503       -4.50423173402438
H            9.71677225854167        3.34775846462349       -4.21552643186100
H            8.30914333704608        5.44870628158553       -4.04514272494004
H            6.55403889387214        7.19277184555033       -3.94116343565820
H            1.97666767616951        9.82491697182331       -3.59131232379055
H           -0.39696031495381       14.09323890153708       -1.97008993799719
H           -1.92737781580436       15.96972207418358       -1.45541459473053
H           -3.20597292407614       12.54169438546210       -4.76163467127531
H           -4.89795786547655       13.56760388416045       -6.03564372366010
H           -6.31102701167927       15.47374804081532       -7.37803769434686
H           -7.18417639560041       15.52543678846452       -5.89987263555270
H           -6.66484492174364       12.99772541486243       -7.57704314903485
H           -8.19055996106803       13.87291353883868       -7.50783010493859
H           -7.59709102973888       13.01665258281048       -6.09159958173500
H           -3.27890591618682       15.53299406956232       -5.49950901293470
H           -4.50751715165837       16.57991894378267       -6.13758029900677
H           -4.41195800413953       15.31409282560733       -8.33378505358570
H           -3.23634472503205       14.22977861234858       -7.65056471249975
H           -1.65962607031138       16.16572294507312       -7.29019475344315
H           -2.83477662190626       17.25054651876694       -7.97787082510504
H           -2.75303353819417       15.96441982603656      -10.14626045216265
H           -1.58068027172518       14.87615814826453       -9.45645141359998
H           -1.15293882865987       17.89871222102561       -9.83059688485133
H           -0.43110626263607       16.63818153670942      -10.82751079096124
H            0.02869316813794       16.80074858575762       -9.13492321382263
H           -5.99512624394052       13.50567970486579       -2.43745877550036
H           -8.27770260654109       12.78160517338981       -3.91987933443456
H           -7.98373824098751       14.41817137891048       -4.40296399802501
H           -8.23872991726019       13.44573455327515       -1.50339897374955
H           -9.44685818440037       14.37509423941525       -2.38545585516441
H           -7.90388983590464       15.10817716801756       -1.95598726308380
H           -4.81116021790011       11.87844604467193       -3.96989665544430
H           -6.25527535093196       11.77210468075899       -4.92128436888020
H           -7.48684750229689       10.80629992529436       -3.02060893762213
H           -6.25641239588403       11.30423536395106       -1.89248040898679
H           -4.59794706361199        9.77101136137604       -3.02875563206830
H           -5.86607371089276        9.21542496729441       -4.08571519431682
H           -7.14211106452557        8.33820453712405       -2.14630479466300
H           -5.95812342656151        8.98207023818690       -1.03683479965208
H           -5.41765884607828        6.80106278232229       -3.13396809229845
H           -5.52330560495185        6.54674922584055       -1.39597934298428
H           -4.19189285582135        7.47704440768632       -2.07584311689303
H           -7.50690460880226       16.50281701977291       -4.24284733813209
H           -7.53238524038250       18.59671482405112       -2.98569731634156
H           -5.65909989141961       19.20348428449387       -1.52292151042628
H           -3.70849750966592       17.69967098151844       -1.32275752131330
H           -2.61451807440755       10.24075848111863       -4.79041399700686
H           -4.35212952716467        8.69076655333200       -5.47851278671679
H           -6.63256839474025        9.30485474041710       -7.15002097650627
H           -8.31108602197631       11.10800521405928       -6.98863223702030
H           -8.69673913876220        7.07830055213054       -4.17031570257863
H          -11.22580179268823        7.05576310997479       -3.77892086803283
H          -13.85412792886875        7.50592747328392       -4.09296868981731
H          -13.51219151686708        8.99209360557068       -3.30484010316245
H          -12.84507763051189        6.21648085806053       -2.15628691485192
H          -14.26155156019326        7.16090068170044       -1.71912679780720
H          -12.66839232135758        7.73347337445242       -1.28264743740038
H          -10.98515073960103        8.16730343033007       -6.11756084754227
H          -12.63722245659679        8.66546905875190       -5.93418458516634
H          -13.31580466617333        6.23605147548053       -5.67848781487370
H          -11.64432736836930        5.76444221162078       -5.77592559662256
H          -11.50066807224356        6.75341286434432       -8.09218540891377
H          -13.17384353716480        7.22360365044030       -7.99536616346295
H          -13.83674175543421        4.80581728250245       -7.71539910686497
H          -12.16162302303563        4.33635100596678       -7.80925354204542
H          -13.70717741377639        5.76002759287767      -10.05526860045800
H          -13.27149136662298        4.05303273608869      -10.04444126495469
H          -12.01831627163584        5.28651289306149      -10.14903064259170
H           -9.39239664075604        9.82441467783688       -2.21006778193242
H          -11.28670436592501        9.44812491370376       -0.25583523096033
H          -12.30405139374091        9.84717661203137       -1.58941449079232
H           -9.92690109041100       11.51558524180998       -0.57347578136021
H          -11.62811758267105       11.93338683586498       -0.39325645626165
H          -10.87278706678749       11.94883323635069       -1.98365979443418
H           -9.21848665672543        7.34134349610042       -2.34845349263506
H          -10.73428172856261        7.17541361086260       -1.53897317236079
H           -9.82139989482319        8.24676840391368        0.50603263976741
H           -8.36797535422622        8.69135487476372       -0.33058331738102
H           -7.87581784626602        6.21680373834248       -0.70498237909198
H           -9.29417561996697        5.82106608531309        0.21987408526965
H           -8.33030162505115        7.02605660831372        2.21417356445296
H           -6.91826146113774        7.44233781397574        1.28235242246430
H           -7.80138786977005        4.56790189721030        1.92566565860518
H           -6.46121670758845        5.41586795698075        2.69240323248172
H           -6.37919192070789        4.98985278115290        0.98492214394724
H          -13.14232966759960       10.86859737992996       -3.07426894975954
H          -13.59533337860195       13.02559365801044       -4.10433893720327
H          -12.07007715594867       13.96327422941394       -5.78205769272102
H          -10.06364574612438       12.69795411316373       -6.46467385352555
H           -4.66729266322418        3.95904617613496       -5.86913051943337
H           -4.36083450051648        0.10555517130703       -6.37426555814732
H           -4.56791936126279       -2.35731980798121       -6.31527003937319
H           -0.50914248016426       -0.14287053296689       -4.59367649916472
H            1.21497261976478       -1.96681588265375       -4.85624453805651
H            2.50912571613344       -4.15402885191483       -5.74523877054690
H            1.49494353189626       -4.96974712319668       -4.62524847062939
H            3.30585342630333       -2.59750686758766       -3.88313168800332
H            3.76434583276634       -4.28238414428273       -3.67921156704994
H            2.44890973831124       -3.62333248850030       -2.73686145875958
H           -0.38235535453786       -2.37663325393262       -6.85296599969034
H            0.37134862328673       -3.93225685606064       -7.01620311649555
H            2.60407350713140       -2.81072429882091       -7.35998864729460
H            1.88341221969791       -1.26487675149838       -7.03234376369697
H            0.35516724807257       -1.57292030624603       -9.03391184659646
H            1.15863856890130       -3.07627917609532       -9.39095431279747
H            3.35122930936147       -1.84011233611550       -9.61290869059249
H            2.53644956179650       -0.34342187981347       -9.24664666653357
H            1.91351526378759       -2.11839125756411      -11.67876581903590
H            2.80977768729186       -0.60328815358590      -11.73131967709311
H            1.10004666131626       -0.60611608287361      -11.30765190724310
H           -1.48678883207559       -2.67876848924532       -2.47867853199608
H            0.55506790569810       -3.89632310649197       -1.11353102272952
H            0.59989810328050       -4.81275975105368       -2.57931680166995
H           -1.87185216510417       -4.38632490846776       -0.79851891722956
H           -0.96830616414732       -5.88870076820270       -0.96166049673555
H           -1.91438149338181       -5.26984176411943       -2.31132705800661
H            0.33970371449575       -0.89219772415223       -3.06132761516958
H            1.44884176284535       -1.96991480538466       -2.29321399372639
H           -0.10434924120905       -1.95770894392900       -0.23164355596141
H           -1.04453135373132       -0.73131632207901       -1.03081577119495
H            1.06311723347669        0.70273809345996       -1.20157397080162
H            1.92794239263225       -0.52176636866027       -0.32167909851765
H            0.42475696949472       -0.17128875581234        1.64301386268547
H           -0.42832769743062        1.06921645190642        0.76222003290132
H            2.98562781133071       -1.60671809812563        1.81807909892116
H            4.52427357640945       -1.01992107461611        2.40159347929292
H            3.11401999724686        0.00370989015488        2.48192193029803
H           -0.01678425144733       -6.02492635367196       -4.13712238793752
H           -1.54809523973194       -7.75260390344008       -4.91496550288646
H           -3.70902444427757       -7.15891211265289       -5.91305008688988
H           -4.34125874341661       -4.78371053413099       -6.16397580042713
H            0.03221575500698        3.58154847553197       -5.10944323175887
H            1.79401887939855        5.14624065269263       -4.51165522825068
H            3.57362434345066        4.19636452756798       -3.43713493355141
