27
 energy: -3.899257031560 gnorm: 0.000393760378 xtb: 6.5.0 (97a52f5)
C            0.85397689985661        0.05064148330318       -0.06747271103665
C            2.37362768848478        0.07134304305296       -0.01790718815923
C            2.91484974566681        0.61424694416565        1.30541413632114
C            4.44165741687622        0.61221088209061        1.37430922815384
C            4.97967598432927        1.15254524959405        2.69905760703047
C            6.50489967190478        1.12132640328062        2.77721973411987
C            7.07433036033122        1.71392246891241        4.07459866543185
C            6.69290321334791        0.90483860279347        5.30970296751464
O            8.49062518062848        1.86770862507262        3.98295395005152
H            0.47843952769000       -0.33688811668535       -1.01740320793185
H            0.44071872387842        1.05243609050396        0.06482178102604
H            0.44160682859797       -0.57393450067623        0.72747239615947
H            2.77173837389609        0.67206820649324       -0.84670524038045
H            2.77073407410293       -0.93892718134055       -0.18475747586639
H            2.50873474415797        0.02604849156590        2.13758970971480
H            2.53939506217310        1.63214429443507        1.46764925430758
H            4.85008144613163        1.19954454127835        0.54274802565699
H            4.81601214925140       -0.40631751264001        1.21353421821435
H            4.55066978116355        0.57595574564961        3.52686063744024
H            4.62310747819777        2.17874415189151        2.85055889183129
H            6.92793944153008        1.66656927206050        1.92633879266600
H            6.86464687582504        0.09306948650588        2.66821799717402
H            6.68637084943101        2.74054559839046        4.18462018507228
H            7.04488386388565       -0.12226463315376        5.21678938298781
H            5.61387855740778        0.87653260371479        5.46374897085560
H            7.15006824483907        1.32763714414537        6.20458537868989
H            8.90484781641485        0.98144261559659        3.88341391295488
