261
 energy: -53.296810379558 gnorm: 0.000900945406 xtb: 6.5.0 (97a52f5)
C            2.61102903736072        1.17889823672677        1.98082770143062
C            4.04965636267486        0.78859970341486        1.68113323307429
C            4.16285371291408       -0.21471607794476        0.53296258902456
C            5.60595647214749       -0.61180303211138        0.22394998086405
C            5.71134657157514       -1.61078986377900       -0.92722625285401
C            7.15249725528290       -2.01264167445137       -1.23404518956279
C            7.33496782610238       -2.99548404830985       -2.41989533747670
C            6.89409589639402       -2.36053214696301       -3.76351697448878
C            6.97897684159665       -3.32325922970859       -4.95041876878054
C            6.22752104735356       -2.82186892028396       -6.18359852674247
C            6.13699794303370       -3.87203498639425       -7.29054850887177
C            5.29026737789163       -3.41827515233389       -8.48010131755914
C            5.17806987049881       -4.48220519008650       -9.55993756199547
C            8.79704921198159       -3.45009343269651       -2.47026786870169
C            9.94734376205255       -2.71928244860458       -2.66043531393640
C           11.18998534429224       -3.36352020571594       -2.66667208273750
C           12.41449392347635       -2.59404720469507       -2.83602974579897
C           13.61626842117628       -3.06990184361028       -3.28965210353327
C           14.64583246170860       -2.10702137143769       -3.31452064745112
C           14.27189754775943       -0.86411770049586       -2.86318893994331
C           15.14857063389364        0.27947232706377       -2.72931545158990
C           16.37909476947951        0.32143097520126       -3.36346442049521
C           17.28298769873941        1.37035099268185       -3.19273940764467
C           17.03429315022684        2.44937476102842       -2.36058094031283
C           18.03632187568189        3.46824522389651       -2.13392011134143
C           19.14291083891344        3.69438291547150       -2.91585378369957
C           20.00467553771448        4.69934701427531       -2.42971743148169
C           19.59258134901819        5.27370755426160       -1.25562099076970
C           20.30807330938122        6.27473604685874       -0.48151398939742
C           19.77895620224112        6.73381202935987        0.73399773547856
C           20.46477343910898        7.61841666851124        1.53484313265290
C           21.71597077697114        8.06486058504776        1.12522563906524
C           22.24917552471847        7.63774826163443       -0.09567097417839
C           21.55836968715634        6.75434625759061       -0.89276158698012
C           23.64679307599094        8.23701722442148       -0.28148416108503
C           23.71539598161150        9.11717202158637       -1.55383501516884
C           22.71207280502777       10.26915885993212       -1.55165229764466
C           22.86491923636003       11.19618988734784       -2.75581905861268
C           21.89869252582384       12.37964281481988       -2.72086349793312
C           22.06618163683935       13.32511691886766       -3.91097274372595
C           21.10670563054872       14.50381468526324       -3.86544416023179
C           24.68080218986935        7.08036992059417       -0.32800351968419
C           26.14948940471930        7.49886829313124       -0.32912794827817
C           27.10278742647616        6.30962211858989       -0.43747137761537
C           28.57342493693279        6.72501648979227       -0.43123763304428
C           29.53121707873510        5.53745929930171       -0.53322197774973
C           30.99214229180900        5.95851525382745       -0.53343571959387
C           23.80596871216211        9.09476773657748        0.97654744883802
C           24.81506212337777        9.95542025044231        1.33950530254906
C           24.72320795053237       10.66251660375568        2.53620959407116
N           25.78476275527960       11.55027789399504        2.91448997466978
C           26.41063131441611       12.48847852655960        2.06479456835185
C           26.11030637651510       12.88650682631924        0.76187836574327
C           26.90494307469982       13.82767129820266        0.16003586969192
C           28.00513429325491       14.39659107227557        0.82645622974624
N           28.82684257384099       15.37004503828741        0.15922103258475
C           28.37483878444763       16.53710865857645       -0.48795675722860
C           27.09064819544718       17.06067487748426       -0.63678544154670
C           26.93440677971289       18.24171334147693       -1.31958308769124
C           28.03589274295540       18.91519384883657       -1.85692290861297
C           29.30834178187547       18.41661075316974       -1.71427491169942
C           29.48348770830333       17.21716414238903       -1.02149467576873
C           30.65843512840789       16.44533855336761       -0.69308056485909
C           32.01471375261205       16.63210019987282       -0.96699012967192
C           32.91278498198141       15.69414942351681       -0.51779088469187
C           32.48407199922496       14.57149216186509        0.19734495859405
C           31.15377805539585       14.37410186955086        0.47440981499060
C           30.22911080060022       15.31955444800160        0.03097677554201
C           28.30128714947994       14.01081165434213        2.12156394693711
C           27.50156403402353       13.05657604752305        2.74335449439618
C           27.55827405081042       12.44798502787334        4.05166577024074
C           28.44931461509002       12.59583189896956        5.11046198779877
C           28.27768535939726       11.82603052466652        6.24689820885562
N           29.20062513455970       11.94572739963261        7.34333626652614
C           29.89880607405695       10.88755133763437        7.95869365739328
C           29.89498095416270        9.51680418941380        7.70043122065994
C           30.69699215959628        8.69968764612329        8.45843486159439
C           31.50821288560741        9.22273182413193        9.47027232052482
C           31.52954342833930       10.57117837592877        9.73335063159371
C           30.71993224881535       11.41493896048265        8.97047801886270
C           30.52393031200878       12.84505507733116        8.97953476498018
C           31.06858517128408       13.86466236343158        9.76246677251321
C           30.67036585199778       15.15877593234375        9.52863942896373
C           29.73719300791398       15.45544870125460        8.53027529090729
C           29.19297076161242       14.46353886523632        7.75218818881779
C           29.59016425759665       13.14476884966721        7.97240694725798
C           27.21127204747830       10.91179260454781        6.31878015678894
C           26.32860324436750       10.75558688606647        5.28116654325825
C           26.49614114870553       11.53150498932113        4.13443139114809
C           23.59873531936250       10.49866644641255        3.34880386811539
C           22.56930931351931        9.66329433064807        2.97824323421948
C           22.66837821019528        8.96101079914801        1.78137900884882
S           18.05662846174257        4.58619514676949       -0.79237868840736
C           15.75902722219909        2.48007456350130       -1.68700240421573
N           15.30911728236679        3.41059754254992       -0.87439377361947
S           13.80904549980876        2.97718708865261       -0.36444123761976
N           13.69866280736681        1.56333545405536       -1.19251404757757
C           14.80552354471929        1.39636870330089       -1.88279066406534
S           12.57205264924069       -0.89728815970288       -2.46174076715467
C           11.23335478475121       -4.75376029718292       -2.47557373887621
C           10.08806993766859       -5.48653242613543       -2.26677587074651
C            8.86250014421732       -4.83102511972065       -2.25407180118419
C            7.51034107471595       -5.36064225870137       -2.08270832954687
C            7.07260235961530       -6.67479300133314       -1.95000871033944
C            5.72101453013075       -6.93207341496134       -1.97588081776942
C            4.79419845470887       -5.90083316632175       -2.15080185717127
N            3.41004261505499       -6.20013948210853       -2.38331701905273
C            2.68521394682251       -5.79507033858396       -3.52492273723684
C            3.06324756503164       -5.00482458176379       -4.61000088699627
C            2.16655438284300       -4.80793708932757       -5.62678568846600
C            0.88775885974241       -5.39246163246034       -5.60232975753868
N           -0.01027404446742       -5.19054257875395       -6.70654615289824
C            0.31186670384514       -5.34394884299099       -8.07013235841655
C            1.49759317163095       -5.73641023111277       -8.69178087121676
C            1.53207774560473       -5.81005451992967      -10.06244889852151
C            0.40420146472717       -5.50201861589377      -10.82938872776369
C           -0.77430582587402       -5.12269341049870      -10.23341112816240
C           -0.82534373556469       -5.04494846581247       -8.84026881534928
C           -1.88551695828661       -4.70039101245793       -7.92320689972248
C           -3.21474895440502       -4.32225010997718       -8.12163141506948
C           -3.99183918104583       -4.04512818503557       -7.02291254225162
C           -3.46730713745288       -4.13446620665108       -5.72971909735903
C           -2.16206982484593       -4.50493997581582       -5.51876274209066
C           -1.36082770081874       -4.79739018060894       -6.62252580124125
C            0.50857897910516       -6.17725435471394       -4.52703554636341
C            1.40853446635284       -6.37912922119229       -3.48387215959989
C            1.33508141298543       -7.16039857281465       -2.27023776737851
C            0.31637161807111       -7.92752006249227       -1.71260791273934
C            0.54064880805378       -8.57065011927617       -0.50831542461515
N           -0.50279985159902       -9.35457299528144        0.09577462464783
C           -0.97808679871791       -9.22425444545467        1.41582508869959
C           -0.60604726995758       -8.35265432019912        2.43925726392238
C           -1.25449245797847       -8.43706057897450        3.64663995554139
C           -2.27180715201216       -9.37367145196448        3.85475106224631
C           -2.65527728078827      -10.23523975220847        2.85539204855811
C           -2.00569210240831      -10.16106424797872        1.62171752010426
C           -2.17085606339399      -10.89350531824094        0.38870995894263
C           -3.02735334134079      -11.93187524130226        0.01804708759254
C           -2.93673418843209      -12.43730476890117       -1.25644898511728
C           -2.00633546830221      -11.92871544544670       -2.16820053736639
C           -1.15757808768245      -10.90754792921836       -1.81851824523998
C           -1.23982682684756      -10.37907885129847       -0.53040132340711
C            1.78764220369904       -8.44826447519865        0.13083054328601
C            2.79945108874255       -7.69647183136592       -0.40832759634633
C            2.57611977316665       -7.04436776539396       -1.62020185576101
C            5.23872325182322       -4.58290158629408       -2.24096370462838
C            6.58725168708258       -4.31345142952835       -2.19139643229486
H            2.54231525852987        1.89532078382129        2.80257979975139
H            2.01420753082213        0.30685056688682        2.25471674756985
H            2.13551492662587        1.63258809592398        1.10920781998553
H            4.52223362261603        0.36748848068127        2.57845870846919
H            4.64198803463349        1.68171716060597        1.44164358575071
H            3.69510801398225        0.20205223377950       -0.36742081880220
H            3.57672394351221       -1.11158583418054        0.76808688877126
H            6.07398058595725       -1.03304202783407        1.12196194354503
H            6.19347426294917        0.28425525126909       -0.01031408303362
H            5.23909334731722       -1.18416284819824       -1.81915848868073
H            5.12209862598282       -2.50225631996428       -0.68458878255692
H            7.59774521644304       -2.46648287260929       -0.34241325922070
H            7.74848734818341       -1.11582295254083       -1.43156331805019
H            7.48754399856486       -1.46190843645252       -3.95861731914043
H            5.86058574027909       -2.01696332351616       -3.66374368745078
H            6.56473279676210       -4.29522471836788       -4.65724280358991
H            8.02719790724945       -3.53026308428152       -5.19753819911070
H            6.69902374712475       -1.90838030878082       -6.56535076858796
H            5.21423642799590       -2.51847759643221       -5.89258984968119
H            5.71901314584938       -4.79990812572605       -6.88083887599396
H            7.14459445853347       -4.14078665070301       -7.63025264766591
H            5.71475187179107       -2.49582671353218       -8.89776050406057
H            4.29026236218179       -3.13490852604637       -8.12553940009600
H            6.15969591222603       -4.74597940237579       -9.95794325283214
H            4.56034452517330       -4.15301915204496      -10.39839361642392
H            4.73598537602481       -5.39866996537683       -9.16538525805984
H            9.89498902013874       -1.65589249662097       -2.80361836806546
H           13.76387673246654       -4.09201166949100       -3.60202935723487
H           15.65388046415154       -2.34398158862161       -3.61669031256634
H           16.65108815831653       -0.49120777710230       -4.01344240317756
H           18.23192019445333        1.31716074273900       -3.69637223681890
H           19.34602513670897        3.14531306449547       -3.82187477230049
H           20.92458653179295        4.96439348420578       -2.92647443143954
H           18.81858680136470        6.36280090680716        1.04615680477469
H           20.05614264939464        7.95405435841433        2.47162497640737
H           21.99580410149139        6.42184461858641       -1.81518384237157
H           23.56082639859002        8.48805989665632       -2.43601219435556
H           24.72594292183148        9.52417767548475       -1.65165663049690
H           22.82569191538035       10.85153308160820       -0.62927601274533
H           21.69041467137315        9.87257756900094       -1.51174269023229
H           22.72239981199228       10.62647505475178       -3.68206664227873
H           23.89625398075708       11.56677253441509       -2.80436580928658
H           22.03545384091793       12.93783960078695       -1.78647894380653
H           20.86615112223532       12.01153452622690       -2.68344755112088
H           21.92987445684042       12.76175141074954       -4.84364440795897
H           23.10356503443195       13.68376500347426       -3.94556425912275
H           20.06816189761417       14.16765881620245       -3.86529286159086
H           21.23544297739695       15.17184256194188       -4.72012058975837
H           21.25271501837695       15.09703735829847       -2.96076904478712
H           24.47602692838325        6.46911111641749       -1.21282092099921
H           24.49499242988175        6.42231837803432        0.52742779436811
H           26.37726143835129        8.05671423956576        0.58585064874903
H           26.34379345744439        8.19559888947872       -1.15218742713821
H           26.88305025895390        5.74234138535792       -1.35009565947369
H           26.91347882993088        5.60971795664371        0.38552217731962
H           28.79065043278947        7.29667144679849        0.47943077888153
H           28.76236217128956        7.42281729593030       -1.25621346326253
H           29.30268883260551        4.96427166306582       -1.44166649917785
H           29.33751519359065        4.84356703631557        0.29564411519316
H           31.21215325943458        6.62013500392706       -1.37344195555664
H           31.66646948744374        5.10205824490887       -0.60439938060251
H           31.24659231518966        6.50183861545723        0.37858235358955
H           25.66935971904461       10.09733043912595        0.70454297615340
H           25.26529322043395       12.45872964665909        0.25262604869938
H           26.70222801633694       14.14048246074345       -0.84926519854642
H           26.24997340855138       16.54183639821569       -0.21213837995326
H           25.94796754835337       18.65821258039759       -1.44208510156013
H           27.88355492804921       19.84035424893214       -2.38819110836436
H           30.16149251959399       18.93031577617540       -2.12116331274771
H           32.33589250716449       17.49659586828112       -1.52088378838835
H           33.96324583304931       15.82336651891045       -0.72081625411312
H           33.20989234151609       13.84979459976389        0.53477007517782
H           30.81525293701101       13.50931504131756        1.01644368521012
H           29.13317102727089       14.44772424871707        2.64129683227443
H           29.27353543412934       13.28028621439903        5.03811619073347
H           29.27617102991917        9.12315740888415        6.91411640366941
H           30.70358361226893        7.63849862555899        8.27033020013607
H           32.12756661088091        8.55776769515632       10.04958387118769
H           32.15434230302131       10.98244979055690       10.50651818071402
H           31.78380652130287       13.62730042047724       10.53020812792227
H           31.08117273545507       15.95752755210622       10.12411568759237
H           29.44007929553685       16.47907821343587        8.37086631138292
H           28.46858476464553       14.68258742327532        6.98827801698038
H           27.09687327910923       10.33147773400229        7.21753979508511
H           25.52371940198389       10.04465863652941        5.33259577379152
H           23.53818960394117       11.06201426112300        4.26337981454194
H           21.69266878683400        9.55445582894424        3.59216072104037
H           12.18897343325134       -5.24807687016420       -2.46714756872847
H           10.12796590495430       -6.55046427015109       -2.11277374186470
H            7.78919771961099       -7.47284674068869       -1.86672067848370
H            5.35994487974749       -7.94401373692663       -1.91958409678166
H            4.04624327245518       -4.57183510677104       -4.63987164185200
H            2.43078777116539       -4.19116822278004       -6.46773963198769
H            2.35631087815779       -5.98595047612374       -8.09485209881705
H            2.44017679092375       -6.11480878831057      -10.55634683869685
H            0.46011688814529       -5.56776233687377      -11.90361412748339
H           -1.64834466339498       -4.88991643371569      -10.81583150311935
H           -3.60919316375312       -4.25291823888142       -9.12010978834039
H           -5.02011499788519       -3.75259851668696       -7.15865784237205
H           -4.09819068452885       -3.90747142270269       -4.88592595909577
H           -1.74953873389956       -4.56580078416371       -4.52767158943936
H           -0.45697429866002       -6.64667365289055       -4.51116797931896
H           -0.63678914638398       -8.00631305352402       -2.20076489633886
H            0.17066241554909       -7.62898250977568        2.26830119619975
H           -0.97695671016871       -7.77039636040132        4.44668053484109
H           -2.76343573332607       -9.41749531074767        4.81274558224853
H           -3.43988310886459      -10.95565686015205        3.00595881303603
H           -3.73795280276434      -12.31954460579900        0.72660808753550
H           -3.59039259667727      -13.23911808046145       -1.55839743459601
H           -1.95439377418641      -12.34667320152071       -3.16022443262066
H           -0.43354100537302      -10.51673548662798       -2.51084433137349
H            1.93745165044835       -8.96889881506671        1.06041354462590
H            3.74978026458562       -7.59639579333822        0.08481674077597
H            4.52794353413826       -3.79423317265955       -2.40410307039294
