224
 energy: -48.276081157664 gnorm: 0.000625907885 xtb: 6.5.0 (97a52f5)
C            0.21611415675492        0.21294884513434       -0.14160460642743
C           -0.50015719527744        1.34623646271318       -0.25823273112673
C           -1.94023449132906        1.44773869665387       -0.12122639243856
C           -2.54753325618338        2.70833229451312       -0.14474868722653
C           -3.90342016230560        2.84527255525925        0.01761205975500
C           -4.71615142134243        1.72919696311826        0.21122675499976
N           -6.12849436821107        1.87880894805765        0.41396279277405
C           -6.85099217169373        2.83375163900729       -0.37256725806383
C           -7.91719686778168        3.55620804674981        0.16102817863772
C           -8.59794932869870        4.47144027605470       -0.60334831509827
C           -8.24586768308084        4.70445006925565       -1.93792001666648
C           -8.98569858202255        5.67702398506423       -2.71930030735053
C           -8.81621765570179        5.90191445256929       -4.03529834032047
C           -9.54343809555952        6.87241518674825       -4.82979730254787
C           -9.33592264224043        6.91936821386710       -6.21273789952914
C          -10.00629390861393        7.82131072990503       -6.99982687839100
C          -10.91249680899243        8.72211489668144       -6.44213742852222
N          -11.61296117010073        9.65868263854244       -7.26555364290560
C          -11.97553043146301        9.30711932283078       -8.61013847549696
C          -11.89586426483175       10.24505486965063       -9.63627386663358
C          -12.24612038508391        9.90825607463149      -10.92444097319843
C          -12.68335917587693        8.62974667096002      -11.21145956145090
C          -12.76994651360307        7.68869086299899      -10.20400466612698
C          -12.42012994353709        8.02314017240714       -8.91516700634733
C          -11.95541086618388       10.95764572335201       -6.75822976593394
C          -13.16712325940639       11.55484900843530       -7.09599535163240
C          -13.49273368849524       12.80353080131363       -6.61619255320920
C          -12.61439009948580       13.47920180771527       -5.79151510936209
C          -11.40758256687731       12.90096709472153       -5.44890900111697
C          -11.07983938032953       11.65238239486811       -5.92760347063307
C          -11.11893890035426        8.68358315848674       -5.06340207900385
C          -10.45190070169971        7.77987255424569       -4.27366305784072
C           -7.17218302030717        3.97895856612568       -2.46604516943949
C           -6.49197776780670        3.06689947349952       -1.69927714064568
C           -6.80581300712272        1.01939471829244        1.33729151484724
C           -8.12913147225302        0.63211332824791        1.12768800540298
C           -8.73312966027377       -0.28349701207160        1.95335171362332
C           -8.02695770572926       -0.87442733647621        3.00535545952083
C           -8.60147793816814       -1.93760918289877        3.85611757299194
N           -8.35131004112164       -1.84467367867801        5.14570402927886
C           -8.92805587674396       -2.78498762035280        5.92153906000481
C           -8.72465613602272       -2.75120626987727        7.31503346417432
C           -9.30893867569287       -3.67067666482966        8.13763232753286
C          -10.12566173859891       -4.66769167383667        7.60511378782371
C          -10.34275235782971       -4.72901998059269        6.25877256175052
C           -9.75436450774402       -3.79702249503238        5.38160782122900
N           -9.96907825193048       -3.91109615995489        4.05476815179666
C           -9.36512020436578       -3.01727970224099        3.29915970721167
C           -9.52341157917706       -3.18939108213620        1.84096055570209
C          -10.73758212552530       -3.65896597258639        1.34041855830959
C          -10.94238235436458       -3.79003945031809       -0.00984792723739
C           -9.94372138749720       -3.45076613915398       -0.92197586054974
N          -10.19892465529739       -3.48635831854954       -2.32951706841849
C          -11.53458987690193       -3.31076269553940       -2.82415263089115
C          -11.98725223446314       -4.05299873897057       -3.91403389403572
C          -13.26804306448861       -3.90356027137471       -4.38357705957944
C          -14.15479242463538       -2.99854593593495       -3.78948873301843
C          -15.50795619500720       -2.88732479215125       -4.29882059721600
C          -16.43781039020484       -2.01669437029669       -3.86485148877441
C          -17.80029396276421       -1.92910321219597       -4.35384200099825
C          -18.64149815536503       -0.91904475239516       -3.87412659724420
C          -19.94122386862291       -0.81562681432414       -4.30261924033070
C          -20.46366227434558       -1.71859283597657       -5.22770140513315
N          -21.82285415835249       -1.62181153494582       -5.66194669890469
C          -22.46596531149540       -0.34091287447612       -5.75359426511844
C          -23.79954997969996       -0.18793208638304       -5.38315378723021
C          -24.41859127970038        1.03817967059385       -5.47744469910387
C          -23.71823566094416        2.13334749794893       -5.94451380492475
C          -22.39515483722839        1.99728966027159       -6.31753905295280
C          -21.77389958417033        0.77221835494569       -6.22377715565921
C          -22.56084771432521       -2.80707010669982       -5.99862849785371
C          -23.45247344537672       -2.80878748149296       -7.06818108006918
C          -24.16469435581316       -3.94313052433557       -7.38686265632778
C          -24.00130549150817       -5.09568750570791       -6.64313779724818
C          -23.12227685429968       -5.10915978267601       -5.57769614807094
C          -22.40895872535814       -3.97609310302644       -5.25717721082154
C          -19.62883752768292       -2.72556634446463       -5.71076303737523
C          -18.32774359697235       -2.83013109747678       -5.28573346997414
C          -13.69023943663946       -2.24397753832268       -2.70611139059936
C          -12.40911658995950       -2.39677084959865       -2.23703436449367
C           -9.12142991481255       -3.58993675035368       -3.26989795662958
C           -9.12901033649994       -2.81919092298584       -4.43152119229151
C           -8.09119286397821       -2.88386968191574       -5.32592863899120
C           -6.99865810284058       -3.72899368524171       -5.10410376221963
C           -5.91483194642212       -3.75131804665842       -6.06660140008766
C           -4.84356427903744       -4.56441715880515       -6.02646295049641
C           -3.75894995165022       -4.56242587154904       -6.98942031408667
C           -2.76641458569366       -5.54605591402031       -6.91625847014158
C           -1.72691240494585       -5.57187395738584       -7.81221644661790
C           -1.62720518048018       -4.61341828031677       -8.82009923235427
N           -0.54461710340084       -4.63761684889393       -9.75462374993526
C            0.02011994923810       -5.88782823057339      -10.17851926797430
C            1.38897301444567       -6.00911148269261      -10.40313978387343
C            1.92888499715426       -7.20449241972726      -10.82142078909343
C            1.11230749417386       -8.30008016852370      -11.02395967984305
C           -0.24779511669998       -8.19536999368542      -10.80658634885357
C           -0.78989196311013       -7.00099705939183      -10.38831868903929
C           -0.02667589442404       -3.40955507951745      -10.29007294878518
C            0.35628165497790       -3.32192702545242      -11.62599384907744
C            0.85297979942420       -2.14451197507618      -12.13837234615363
C            0.97761584524578       -1.03386406277506      -11.32654179149665
C            0.60378546592602       -1.10547596961111       -9.99867582080018
C            0.10668489558756       -2.28173000655328       -9.48413027535032
C           -2.61069039402103       -3.62797113335844       -8.89406921391656
C           -3.65307906671362       -3.60167118349064       -8.00165680700353
C           -7.00152482590648       -4.51139800519804       -3.94342803402646
C           -8.04076497309765       -4.44281262236705       -3.04811168812396
C           -8.71034033722624       -3.03453346377973       -0.42231708033970
C           -8.49727961440700       -2.92642616223277        0.92911358997230
C           -6.72690312218694       -0.43447951175383        3.25311888428447
C           -6.13023417746076        0.49318243775426        2.43800020270032
C           -4.11936116200008        0.46872846777343        0.21166038020761
C           -2.76321912296035        0.32912948197616        0.05182292307915
C            1.65964110943294        0.11584899024488       -0.23912161812197
C            2.28513796995322       -1.11180720789740        0.00493552777503
C            3.65060392583666       -1.23579570053777       -0.05366299694755
C            4.45625953787239       -0.14002908011320       -0.36083107772890
N            5.88005776609887       -0.26389301021056       -0.40156788352519
C            6.49104642434260       -1.50881949957079       -0.77553923369572
C            7.63195229394060       -1.96381674179730       -0.11947160904219
C            8.22089907945725       -3.15513980057149       -0.47891915145264
C            7.68285144099816       -3.91303912668873       -1.50078221935247
C            6.55310599816189       -3.47373068740418       -2.16326650017480
C            5.96236628860392       -2.28269065538480       -1.80552858245980
C            6.71518202222796        0.84900443373148       -0.04468461179002
C            7.89263542653684        1.10440547767264       -0.74280491375558
C            8.69753472451619        2.16663295981176       -0.39749513930127
C            8.34289279366564        2.99198105434838        0.65189558760885
C            7.17970205389092        2.74964052250326        1.35641203506329
C            6.37327644774517        1.68797505514889        1.01302128098504
C            3.83692527413014        1.08303782919237       -0.61601215957693
C            2.47135495703859        1.21059946331158       -0.55684569472436
H           -0.30363092869735       -0.70358013879311        0.06845536875494
H            0.02187600854316        2.26760053433568       -0.43930226165183
H           -1.93248443420622        3.58134772589026       -0.28128498837352
H           -4.35700937070433        3.82099816190934        0.01595678252699
H           -8.18928223573510        3.39494414987020        1.18950795715222
H           -9.41847853438858        5.02266588267820       -0.17686308868919
H           -9.73165481301895        6.24192544641013       -2.19134105638461
H           -8.09400569093426        5.31019989811632       -4.56683675087645
H           -8.63801999037863        6.23198294065357       -6.65949795737021
H           -9.83041736781637        7.85309624346249       -8.06080409615193
H          -11.54766770220127       11.23697933336557       -9.40687927700050
H          -12.17799602389811       10.64299979269167      -11.71004821127804
H          -12.95713688946340        8.36701063173495      -12.22023308231469
H          -13.11351383267976        6.69165138233775      -10.42661944689121
H          -12.49536584174126        7.29806571294614       -8.12366626895947
H          -13.84924518566386       11.02020495749294       -7.73371229930717
H          -14.43446435381878       13.25400483212798       -6.88431586425110
H          -12.87003351090770       14.45681679401620       -5.41661758782462
H          -10.72045441940430       13.42877664662763       -4.80783547158420
H          -10.13599900685098       11.20172439929591       -5.67477910564670
H          -11.82391773663196        9.36927894597171       -4.62695962635921
H          -10.62790085647014        7.77540597659409       -3.21297750889572
H           -6.86675805405570        4.14030782224194       -3.48411358571924
H           -5.67355743685741        2.50789875993033       -2.11832312400848
H           -8.66196618974894        1.03352162004228        0.28385875121646
H           -9.75151140495073       -0.58315316822085        1.77587343941274
H           -8.09596120743723       -1.97617246266105        7.71718111542372
H           -9.14010508496513       -3.62805797714201        9.20114298645917
H          -10.58137118961739       -5.39307009803490        8.25888196847195
H          -10.96508380223896       -5.49917940205329        5.83778922099257
H          -11.51965849232129       -3.90541481160130        2.03764126083433
H          -11.88535562757920       -4.15151926483081       -0.38075103436960
H          -11.31653806559479       -4.75824834348423       -4.37297132694281
H          -13.60490870128680       -4.49151283228572       -5.22021097878077
H          -15.77014515036887       -3.56651186674574       -5.08891003718193
H          -16.16840866474690       -1.31954105966643       -3.09307101719409
H          -18.25601842807066       -0.21669976145952       -3.15494588269741
H          -20.58133171393511       -0.04278185141002       -3.91466250931034
H          -24.33694077614122       -1.04380341785835       -5.01370619129733
H          -25.45079186608874        1.14377106811847       -5.18570418066592
H          -24.20372594948170        3.09275613219046       -6.01857109354900
H          -21.84869321343754        2.85084107431206       -6.68425510797025
H          -20.74707036168504        0.65657336130593       -6.52396526518634
H          -23.56988320955948       -1.90953583897116       -7.64730664575074
H          -24.85044678206674       -3.93208700952163       -8.21829901175860
H          -24.55974496911782       -5.98305239349570       -6.89291966890611
H          -22.99600977260247       -6.00722399638305       -4.99525166827274
H          -21.73206452521033       -3.97605038103409       -4.42071405210984
H          -20.02077021079585       -3.41922712730089       -6.43388450034693
H          -17.71107894092812       -3.62251482520428       -5.67001844931583
H          -14.34554600791916       -1.53945583945606       -2.22643225879346
H          -12.05899902071347       -1.80376815606276       -1.41013077252213
H           -9.95862114741667       -2.15684931429168       -4.60709329339152
H           -8.10906520108320       -2.27500275650022       -6.21369189335379
H           -5.99827952378823       -3.05525323258137       -6.88078183293764
H           -4.77305323799925       -5.28532286791446       -5.23295177229275
H           -2.82738936453884       -6.29243452146604       -6.14277354087421
H           -0.96490770363565       -6.32794784309241       -7.73937377016347
H            2.02001635065929       -5.15343675588274      -10.23753437089920
H            2.99017351868570       -7.28553097250217      -10.99105261486457
H            1.53562297137231       -9.23521623582408      -11.35248489204226
H           -0.88599279059671       -9.04898018480318      -10.96704788680662
H           -1.85025231797208       -6.90898674660336      -10.23019434514547
H            0.24881493140489       -4.18857763711508      -12.25460894389328
H            1.14380681579586       -2.08908640422090      -13.17472401562382
H            1.36666467656439       -0.11261491531887      -11.72852618433229
H            0.70267183473598       -0.23993416110709       -9.36405336772521
H           -0.17641129591657       -2.34759514228906       -8.44807616357602
H           -2.54582698611945       -2.89035521198145       -9.67471733609018
H           -4.39204327597105       -2.82473578814924       -8.07989360573766
H           -6.17609207929064       -5.17068781887097       -3.74341920247737
H           -8.03826544774621       -5.05487899514073       -2.16303181128655
H           -7.93050629992856       -2.76756082530610       -1.11330762058530
H           -7.53690580877722       -2.61181483002975        1.29862725686100
H           -6.19134259023717       -0.85443951813987        4.08698486023077
H           -5.12265277405172        0.81650289608241        2.63265632432214
H           -4.74402179101819       -0.39892543624051        0.33425191551264
H           -2.33164281592180       -0.65555266345395        0.05788460140839
H            1.67873751488654       -1.96666735842255        0.25116089496106
H            4.11903287357840       -2.18126038079633        0.15649050617793
H            8.04157313715912       -1.37167839838764        0.68016884456161
H            9.10237074866905       -3.49723008782156        0.03845910049604
H            8.14445299167127       -4.84567120863159       -1.78140186168559
H            6.13418527861904       -4.06329368272741       -2.96238768970213
H            5.08911273550600       -1.92882451888120       -2.32522494712602
H            8.15962961453818        0.46077750905079       -1.56273589191321
H            9.60531553224456        2.35481666706316       -0.94721628783631
H            8.97360278986881        3.82337156487551        0.92138354171190
H            6.90389786498512        3.39123364669240        2.17737934588624
H            5.47259163033021        1.48584977733649        1.56599868298541
H            4.44996851993094        1.92960455449118       -0.87132262968504
H            2.02274473186422        2.16602690945087       -0.76123053629467
