312
 energy: -56.397914286922 gnorm: 0.000780581735 xtb: 6.5.0 (97a52f5)
C           -0.21646627895586       -1.70286492947775        2.46039640431562
C            1.24751461564381       -1.34443502433395        2.65508226800813
C            2.20041788783915       -2.37299210842888        2.04159248187908
C            3.66997232730484       -1.98236537876689        2.19527756626231
C            4.64323477325613       -3.06333438036702        1.72266847425300
C            6.10171097806074       -2.70513070518392        2.02831369935026
C            7.08082711693849       -3.90905800576379        2.02033058366130
C            8.45646077623137       -3.47239671310153        2.58663083319237
C            9.50491393735805       -4.58244845395671        2.57920032471239
C           10.86958386614872       -4.11628070220127        3.08162671037682
C           11.92464917768889       -5.22092692432304        3.04439312757950
C           13.29509583102413       -4.75643441327418        3.53877289096230
C           14.33955734953114       -5.86069969971374        3.49874933492257
C            6.50099862944799       -5.07334095992353        2.82307388249500
C            5.95127523991428       -5.07451444890268        4.08225749446777
C            5.32744916767480       -6.22873784756170        4.56157810602028
C            4.50036927806529       -6.12303146020097        5.79431692361448
N            4.94345088631552       -6.66830063357691        6.91697506589044
C            4.17750641810987       -6.43140015994578        7.97078857737053
C            4.58627342182275       -6.98369140833054        9.26753459834374
C            5.86023330572136       -7.52561856973547        9.46565690289408
C            6.24983530978030       -8.00022848386688       10.69926259559587
C            5.35148543748499       -7.93999863746418       11.76034970945205
C            4.06757014277894       -7.42244445779724       11.56317020778939
C            3.68861635490829       -6.94120953029889       10.33347791077570
C            3.27591599498478       -7.48124789661883       12.87022068292225
C            2.01896008008787       -8.37475115474893       12.71821873691136
C            2.33828303156477       -9.81182572121944       12.30695214331895
C            1.12286647837437      -10.73477078425217       12.37460106926773
C            1.47054923922550      -12.19536903947078       12.09061613927079
C            0.26831762271714      -13.13195167653262       12.21456503874384
C            0.62701954965533      -14.58573176611054       11.95029044268219
C            2.90351876269841       -6.03610264931194       13.29152414794730
C            2.18527595773264       -5.89123984225175       14.63172901841083
C            1.72080210016042       -4.45800076045661       14.89042857117373
C            0.95836420858849       -4.30161223353075       16.20561427814867
C            0.41903029394927       -2.88586281526656       16.41237310002421
C           -0.34789425045816       -2.72803976162095       17.71538592925579
C            4.27652813744303       -8.13167925863271       13.82765389550842
C            4.08717184536280       -8.60443539489121       15.10539924398809
C            5.10484818531507       -9.31701437718670       15.73595023357193
N            4.84439780926961       -9.94574464336274       16.99974469355859
C            3.72647307739705      -10.76226716008486       17.27558389971487
C            2.66839665030206      -11.16829233644347       16.46654710225303
C            1.71195670324683      -12.00115385109248       16.99249549226102
C            1.76970064903647      -12.45933149139531       18.32235166006017
C            0.69819683248631      -13.39096355683012       18.90934631573283
C            1.35934534795098      -14.70652023850008       19.35998003380660
C            0.03420787867866      -12.70426685091702       20.11703993391113
C           -0.39757814496027      -13.72684553455038       17.87900593367411
C            2.82801680202421      -12.06065786610700       19.11832010779940
C            3.80991000900904      -11.21650110336265       18.59942624391480
C            5.02097864393591      -10.66601319795703       19.16424625392872
C            5.59855912424444      -10.77635875247467       20.42867063795730
C            6.78631842502050      -10.12445579566150       20.70329724418453
C            7.40427423442033      -10.25388566679496       22.10422109451951
C            6.41432851805325       -9.70556775424465       23.14858739445328
C            7.69663555030465      -11.73723643758605       22.39661132305668
C            8.72316622047287       -9.46656402183316       22.22574139371959
C            7.38771226313849       -9.35708050547354       19.68736045535781
C            6.83341817661566       -9.23809213738724       18.43594748308228
C            5.63949907434199       -9.89970443587455       18.16431640175813
C            6.32093484834403       -9.51210272700898       15.07603032487031
C            6.51332065916201       -9.05799745953379       13.79017213842236
C            5.47777361613961       -8.38281979388922       13.15147919551092
N            3.06902133010420       -5.70608669001030        7.96981339374498
C            2.71733316044224       -5.23229064115756        6.78723942648837
C            1.51956911220136       -4.37021285536623        6.72183391054392
C            0.58366299006949       -4.51969362096526        5.69238631760616
C           -0.49993389725749       -3.67757550714307        5.58771611993252
C           -0.63830786883721       -2.64211382095133        6.50576905153928
C            0.30064050301405       -2.47678371511077        7.52932216344153
C            1.36069461656136       -3.34371845759019        7.65327097753607
C            0.00121929958898       -1.18878944368675        8.30078546190878
C            1.17616948421215       -0.18950692017010        8.13802366161787
C            1.57887483793359        0.02123531827470        6.67897108221676
C            2.75785128100569        0.97432442648490        6.49852074515428
C            3.20685741521334        1.07040501679632        5.04061739180529
C            4.40533152533485        1.99517527948736        4.83126369784808
C            4.86379511340921        2.03535311343999        3.38162140304943
C           -0.26007302843311       -1.53540747560269        9.78908220219325
C           -0.68057684461556       -0.36708290423610       10.67817774381664
C           -0.76157455021788       -0.74766394310365       12.15649504446193
C           -1.19304443710113        0.41783360005370       13.04646469756650
C           -1.22392152676710        0.05747002888126       14.53206184111434
C           -1.66854974988042        1.21522439137131       15.41126183754934
C           -1.24913439040489       -0.66406356427141        7.58958599535601
C           -1.93874788062876        0.51366506217327        7.76285368982793
C           -3.01201409486963        0.81519193318219        6.92728185945516
N           -3.70856339707543        2.05958673280775        7.08624547806753
C           -3.10491718568522        3.32797978137005        7.22751553603177
C           -1.76831787769259        3.71728891688055        7.19689437474571
C           -1.46040759227147        5.04675388414865        7.35329896108915
C           -2.45251599855525        6.02791738737766        7.54058485013502
C           -2.10770506558067        7.51488218240036        7.71676197829598
C           -2.76430534642284        8.32638155274585        6.58475901344976
C           -2.63771139271451        8.00197615733528        9.07807759758222
C           -0.58734602902314        7.76153064860245        7.67203105399557
C           -3.77836794166546        5.63680599689214        7.56124416931358
C           -4.10907558735844        4.29136688845500        7.40240014030128
C           -5.37721334013182        3.60034191613533        7.37068982465652
C           -6.69076283111118        4.04817151603724        7.50709058851607
C           -7.73590242214770        3.14498489197591        7.45355049808003
C           -9.17614625087480        3.65677460496580        7.61092986701175
C           -9.32784461097376        4.33068192840222        8.98717321309378
C           -9.47804190459420        4.67754158529256        6.49812804953172
C          -10.20597439108171        2.51474524547714        7.51336482795705
C           -7.44220338379808        1.78114479128058        7.26437775720892
C           -6.15427662196340        1.32314575710710        7.12729909644798
C           -5.10607836107786        2.23798389935793        7.17394518996033
C           -3.37480066862970       -0.08150921323623        5.91963151208487
C           -2.67523121873748       -1.25027868633056        5.72183595224493
C           -1.60146632431588       -1.54111348089355        6.55631652810308
N            3.38811800695269       -5.41539674836664        5.66492280333449
C            5.32155190166914       -7.38727146094323        3.77305326891998
C            5.86569197241877       -7.38717063138788        2.50750995241727
C            6.43156241528507       -6.21427953694890        2.01601781910666
C            6.91754403555139       -5.87938514787378        0.67470289950149
C            7.07210353247737       -6.67596771117994       -0.45417364910027
C            7.59253361433054       -6.11458563104919       -1.59838816555968
C            7.96174350913985       -4.76750823355075       -1.64210807308541
N            8.59833655185882       -4.22394606706375       -2.80742578577591
C            9.79315658528730       -3.47126084103301       -2.80822485652171
C           10.62764634519740       -3.07168628930767       -1.76727401755772
C           11.76283562397387       -2.35709885016226       -2.06247873152122
C           12.11239314612907       -2.01978924060822       -3.38378281355307
C           13.38322878956930       -1.22150423342520       -3.71344093189432
C           14.29573166621201       -2.06980039198842       -4.61824894262730
C           12.99312962268307        0.07735350447920       -4.44287144694724
C           14.17176109361846       -0.84633411574767       -2.44379439444958
C           11.28699903798193       -2.42936384134938       -4.41449507704791
C           10.13089550713708       -3.15678290749382       -4.13263245184855
C            9.11613220122319       -3.73443501821005       -4.98291194084501
C            8.94630167779901       -3.73776358478038       -6.36705733406720
C            7.85868826205778       -4.38195576582749       -6.92644234742000
C            7.69073493427445       -4.37844508190877       -8.45391683293422
C            7.56566538159372       -2.92550189375255       -8.94818418799850
C            8.91983732433827       -5.04201045352313       -9.10248489240400
C            6.43332476232129       -5.15170905907497       -8.89579627354981
C            6.93801542577915       -5.01929307023677       -6.07301248666998
C            7.09054856532529       -5.02644962693215       -4.70767632860538
C            8.19318515996535       -4.38497031167819       -4.15013751140071
C            7.77599848745919       -3.96785539981617       -0.51567044170466
C            7.25640664454807       -4.52144243787356        0.63094028349475
H           -0.88333979233599       -0.97943134688685        2.93555298863101
H           -0.44077916060789       -2.68333551588355        2.88292248390002
H           -0.47647955806520       -1.74406978058897        1.40083682878332
H            1.46851041677111       -1.24265598136111        3.72594388483963
H            1.45538554319839       -0.35466139590736        2.22653545487024
H            1.96395358618050       -2.51704875084568        0.98022430173665
H            2.02925376816591       -3.35127389324926        2.50840058337893
H            3.86970252058345       -1.76123651320213        3.25099772476869
H            3.86751303489933       -1.04296938742496        1.66439194937333
H            4.51365044992208       -3.26283776457682        0.65205590049868
H            4.38559607273182       -4.00693374254251        2.21834715600296
H            6.14834138327606       -2.24666985723955        3.02218222098926
H            6.45941693323783       -1.93515049521115        1.33716974205589
H            8.32077377355617       -3.09803976194834        3.60646563867836
H            8.82149157103420       -2.62062089489114        2.00331827108303
H            9.60823976145129       -4.98471729683431        1.56402836399687
H            9.15369859113612       -5.42718355362507        3.18429387689769
H           10.77421023876394       -3.72842206977134        4.10334112343277
H           11.20967227106603       -3.26220344493557        2.48270951014991
H           12.01407240275307       -5.60973191157369        2.02238131912262
H           11.58552014202388       -6.07439522895838        3.64443674406683
H           13.19815727167000       -4.36395551854990        4.56000352604705
H           13.62659985852119       -3.89990510899500        2.93636929319237
H           14.04257988743778       -6.70763516236347        4.12054031091973
H           15.31420019074491       -5.51811938449522        3.85438845087121
H           14.47507774918782       -6.23934069636091        2.48366222834429
H            5.93120380820376       -4.17389287146526        4.66879421258069
H            6.53881808226159       -7.55527158465046        8.63112414372958
H            7.23112819717640       -8.41390122343335       10.85169529211914
H            2.70803103015134       -6.52714785228205       10.18740018081001
H            1.33381711437880       -7.91947240964835       11.99605777852171
H            1.48040005197142       -8.39221309628602       13.67002266789931
H            3.12692803301779      -10.20993928773851       12.95684729624266
H            2.77000794376198       -9.82718063023389       11.29883962775818
H            0.35294567293765      -10.38882927534467       11.67405645718353
H            0.66080521705674      -10.65784391867669       13.36679998213234
H            2.26178225155796      -12.52366626153774       12.77617203629418
H            1.90807617954032      -12.28307247690680       11.08855303910852
H           -0.52015186258222      -12.80413459423396       11.52390216652020
H           -0.17081554036220      -13.02729821533073       13.21599098330695
H            1.03555106402013      -14.71553136093944       10.94608301931832
H           -0.23866472978829      -15.24616625732608       12.04086479504478
H            1.38444223077872      -14.93929498669485       12.65273373111681
H            2.28058784703351       -5.60229394051603       12.50211429200278
H            3.81779347691714       -5.43324429125369       13.30111223050319
H            2.84035049874793       -6.22012177214708       15.44672834568735
H            1.31746676598004       -6.55907799753245       14.66892660724936
H            1.08599447547029       -4.12502974565076       14.05960197990888
H            2.58305112140824       -3.77991480439799       14.87741514825114
H            1.60639272197708       -4.58037088796915       17.04565454310263
H            0.12793785256520       -5.01787127875380       16.23654137126635
H           -0.22398071886726       -2.62095597280119       15.56268769319186
H            1.25147748666103       -2.17053320421686       16.37320481652953
H           -1.20215023734717       -3.40683770418477       17.75551358988739
H           -0.72935171913587       -1.71260766020479       17.84718073360639
H            0.28429082052448       -2.95559107128457       18.57598393842241
H            3.14345840844143       -8.47544006366737       15.60216469495521
H            2.61992519203035      -10.83693572085425       15.44491248762929
H            0.89855020259585      -12.31067234046574       16.36077280154339
H            2.10713936403273      -14.53040289232469       20.13227634148599
H            1.85367629644147      -15.19572890693382       18.52087432900016
H            0.61907006391077      -15.39650810815991       19.76470924644636
H            0.75984274732902      -12.49379776892381       20.90181097337378
H           -0.74526288721634      -13.33476174031756       20.54461424304876
H           -0.42095571916821      -11.75957738965673       19.82002149017842
H            0.02179401512446      -14.23517423453839       17.01088496217977
H           -0.90821646218194      -12.82539920639841       17.54070402573396
H           -1.14837178954271      -14.38610633092378       18.31466593431528
H            2.90944172623691      -12.39733645448803       20.13514758895190
H            5.10867012445654      -11.36858489745754       21.17915061293646
H            5.48042813290679      -10.26628939909891       23.14257764103805
H            6.17865970424868       -8.66135915886035       22.94398945640024
H            6.83299554601569       -9.76608863578656       24.15306382990813
H            6.78448354001197      -12.33243845183924       22.37792106070083
H            8.15330552832965      -11.85864633998101       23.37877122258741
H            8.37963965433630      -12.14855284365092       21.65358506568329
H            8.56369992216945       -8.40322030117981       22.04791030793299
H            9.46508587962691       -9.83096722203529       21.51545900175885
H            9.14525369333431       -9.57247109568189       23.22511724965351
H            8.30994244489924       -8.84287222985072       19.89104627594722
H            7.29758926534602       -8.64186831693289       17.67063810044539
H            7.09170383435111      -10.07380650503743       15.57426830047362
H            7.43258799465063       -9.24898484372772       13.26477840044442
H            0.73197838470352       -5.30762830086971        4.97434482178217
H           -1.22351304920142       -3.79599520035159        4.80077282602272
H            2.09435321774025       -3.20497239607758        8.42615695359400
H            2.03628089295310       -0.55581059444854        8.70770099400468
H            0.90526183794362        0.77058537078174        8.58691846374061
H            0.71726748862606        0.38452697431224        6.10537975843814
H            1.82858081859218       -0.94740297745708        6.22912248933660
H            3.59806828086397        0.64183669164503        7.12057050660074
H            2.49553320128574        1.96956336884810        6.87793315158416
H            2.36828071148412        1.40428694949373        4.41704204230368
H            3.45434223436394        0.06813459522281        4.67151014447963
H            5.23083256162159        1.67154081877793        5.47938686544485
H            4.15065130743136        3.00544900537067        5.17862799942014
H            5.16086785209803        1.04379691111224        3.03383256458323
H            5.71689161892395        2.70268204141088        3.23819509087300
H            4.06334460399725        2.37935385718891        2.72353363435237
H            0.64759826410777       -1.99191852004810       10.19781888761816
H           -1.02258006776725       -2.32032610714813        9.83271669918053
H           -1.65190410595353        0.02003839978203       10.34998741835128
H            0.02038960591674        0.46695303249636       10.55908299085120
H            0.21148758070916       -1.12709482432570       12.49263971272944
H           -1.45422875110321       -1.58856997927792       12.28525274064510
H           -2.18130482763373        0.77537522344689       12.73188773665142
H           -0.51974356412910        1.26956264221431       12.88921234548780
H           -0.22782242209567       -0.28747619737479       14.83960316576377
H           -1.88492157144942       -0.80666476851184       14.68201894485365
H           -1.00213090942524        2.07310092560460       15.30123214644428
H           -1.68382177071852        0.94478537680884       16.46982328604688
H           -2.67219241156485        1.55181055473754       15.14373519876198
H           -1.64451713790356        1.21449014132404        8.52142998866281
H           -1.00077133864872        2.98029896307814        7.04078087355139
H           -0.42605491225599        5.33988757325919        7.32796919009780
H           -3.84920890180612        8.23028938153126        6.60590710218633
H           -2.41665729951010        7.98022595784983        5.61157453886971
H           -2.52244234315737        9.38546176326797        6.67279883917307
H           -3.72053693073542        7.90115226306892        9.14129400745730
H           -2.39129517363341        9.05126220740366        9.23992629403238
H           -2.19968839149789        7.42307319868370        9.89097848999803
H           -0.16710384853795        7.45144507192679        6.71547747457009
H           -0.07784489872423        7.21824040079273        8.46766019492516
H           -0.36387627041972        8.82051918264422        7.80142726856074
H           -4.56322062779841        6.35764001246731        7.69656016138822
H           -6.87508970567961        5.09569295983501        7.65752921969540
H           -8.65650496437323        5.18272228261769        9.08743941611961
H           -9.09748161475083        3.62750283329280        9.78736479321414
H          -10.34619972603119        4.68942521647367        9.13608081129231
H           -8.81144717913652        5.53713216685697        6.55657843853111
H          -10.50159268594895        5.04454492801119        6.57251185998170
H           -9.35288227362634        4.22347075012131        5.51531501081549
H          -10.04868127469557        1.77553672126920        8.29856566352824
H          -10.14654942824635        2.01386500987382        6.54725812447056
H          -11.22012527901392        2.89898036378624        7.62278779707926
H           -8.24682314434723        1.06862861472862        7.22815290762836
H           -5.94310105833278        0.27693574364587        6.99603194905476
H           -4.19551562253778        0.17514791163641        5.27283788140112
H           -2.93513231181418       -1.92680527398822        4.92666577757105
H            4.82808929241104       -8.26533828539989        4.15277057175414
H            5.81747721314737       -8.26120244458657        1.88201228508170
H            6.80334490829504       -7.71699250608525       -0.41653170440831
H            7.75554000510555       -6.72081889724370       -2.47223636457068
H           10.38282281466044       -3.33693160166185       -0.75433138305313
H           12.40200149768521       -2.05245471723590       -1.25309458539570
H           13.80323455752697       -2.31671678059953       -5.55802061570348
H           14.56456610157399       -3.00418346540156       -4.12587958461669
H           15.21595080114351       -1.53585441023076       -4.85491972367384
H           12.47936441390084       -0.13306052193516       -5.38011390676666
H           13.87475998196553        0.67522665739683       -4.67356267625583
H           12.32845809871484        0.68085632001195       -3.82499375618724
H           14.49124783063168       -1.73651558973382       -1.90218522968578
H           13.57027513877409       -0.23003932883357       -1.77575458147071
H           15.06644862410187       -0.27827046036704       -2.69875693996354
H           11.52621888956273       -2.19922188524012       -5.43609937720512
H            9.66767143287376       -3.23666938363800       -6.98550783990483
H            8.45700739128745       -2.34703887440106       -8.70818832496280
H            6.71191158548223       -2.43299586146459       -8.48308604042416
H            7.42752012289262       -2.89145266157732      -10.02878389456693
H            9.83438047443258       -4.49898122598871       -8.86711899926278
H            8.82042528439265       -5.07135556152093      -10.18748627712370
H            9.03721632887023       -6.06543501355934       -8.74663871301675
H            5.53068677302889       -4.70460798404056       -8.47973870372044
H            6.48245173600991       -6.19388962242205       -8.58070792790224
H            6.33489961210398       -5.14083120760613       -9.98134326478375
H            6.08449208432833       -5.51786065162747       -6.49642827522187
H            6.37348232874866       -5.50746845986173       -4.06666925727039
H            8.05355694286251       -2.93030324127669       -0.54118177626149
