243
 energy: -46.057027920568 gnorm: 0.000536350129 xtb: 6.5.0 (97a52f5)
C           -0.69126873664949        2.38300114319478       -0.37202211356737
C            0.67814382988048        2.22623212011328        0.27049259264476
C            1.78349364043285        2.90115435502175       -0.54034978349584
C            3.18524018439536        2.70164590158323        0.04152853017620
C            4.24590322112028        3.43364365595779       -0.77814009592685
C            5.68323278289192        3.22608986852628       -0.29439911757079
C            6.77771914630155        3.81428689787261       -1.22898393907833
C            6.77501116215250        3.10668225397301       -2.60853387004419
C            7.92262764929099        3.53729366043170       -3.52099946261606
C            8.00827990175006        2.70857051208390       -4.80089748862161
C            9.21307935349931        3.07488932297313       -5.66630877424985
C            9.32459853788184        2.21849334522445       -6.92806299461349
C           10.53807187656703        2.57130902629770       -7.77321175797241
C            6.63938213104590        5.32995111716153       -1.38417571750925
C            5.59640864242254        6.07357142090768       -1.87480203827228
C            5.66374351493208        7.46793832419437       -1.86402560274864
C            4.43560362022295        8.20893886485073       -2.19609062663537
N            4.52117337059734        9.36463855224417       -2.83749499431827
C            3.34700341977175        9.90173999416508       -3.14113464123470
C            3.33283120568686       11.16574338867718       -3.87910284089748
C            4.50212241776632       11.71197502293811       -4.42197201159321
C            4.47373095833321       12.88470878918966       -5.14244970583002
C            3.25578275352964       13.53625773578731       -5.32542130089061
C            2.08570063097251       13.00689721699472       -4.76805735999045
C            2.11959603094308       11.83219445657650       -4.05851307381507
C            0.89891605323722       13.91572977032945       -5.09086192489354
C            0.26674955121827       14.47782511028245       -3.79295848484126
C            1.26472499290737       15.22287800748967       -2.90723280428926
C            0.60332194540895       15.93716648810699       -1.73091964526486
C            1.59543356033797       16.74382588307822       -0.89441633928296
C            0.93342775203436       17.48874310437852        0.26502869938760
C            1.92499743226511       18.29571796410055        1.08777257122859
C           -0.12848654229347       13.11438400293210       -5.93089596269687
C           -1.35592028998866       13.88878290052318       -6.40596434983546
C           -2.37759153703334       12.98905004011778       -7.10054809128148
C           -3.63656248673068       13.73615590413017       -7.53809818249767
C           -4.68019905290945       12.81571847556848       -8.17148534780946
C           -5.94452103413383       13.55050500258320       -8.58636953139503
C            1.55880618363869       15.04086417436492       -5.89077670151986
C            1.03019738059741       16.22533679098979       -6.34279001841029
C            1.86389704936409       17.17402683499679       -6.94365838784434
N            1.33160464406804       18.45948855422140       -7.31737280533175
C            0.77612082978700       19.31907109171891       -6.32754204094224
C            0.81456168535657       18.98902396881578       -4.98098378202727
C            0.27721204912358       19.82683716598749       -4.02429158292014
C           -0.30377641313043       21.01758984328939       -4.40366399583002
C           -0.33978930448109       21.37260656118047       -5.73653842867555
C            0.19821014474769       20.54412596494114       -6.71451264154194
O            0.15814666413684       20.95563162238250       -8.04424257383217
C            0.72668742535975       20.12344067025315       -9.00557082726734
C            0.70490807758328       20.52311207079364      -10.33657959841059
C            1.23610365049483       19.72420517880160      -11.32789555667770
C            1.79532868132772       18.50678120966808      -11.00421628080487
C            1.82947419807728       18.09247783447379       -9.68737691670237
C            1.31283311685020       18.88536921156677       -8.67452876007634
C            3.22915571607310       16.88870653076215       -7.09448946224173
C            3.76769982642889       15.71219930264166       -6.63059407908505
C            2.93351662658469       14.78645043125233       -6.00861776159938
N            2.16138145789795        9.38578098994361       -2.84396725062544
C            2.20475707940374        8.25644488274450       -2.15720641601698
C            0.93004029766118        7.62522836713428       -1.76852654191562
C            0.78407620071919        7.05711923208910       -0.49571171947237
C           -0.37145914820737        6.40722361180041       -0.13207803662778
C           -1.39789062122529        6.28979496309863       -1.06555817676815
C           -1.24968127728901        6.82885093696849       -2.35059571548936
C           -0.10903909754407        7.51456438113373       -2.69541750680918
C           -2.41991153694304        6.38279868962618       -3.23092083926891
C           -1.89836637804374        5.49509721182568       -4.39058547600029
C           -1.01583906125584        4.34418763966351       -3.90811871800681
C           -0.51497777232289        3.44581133715416       -5.03532809692462
C            0.41744582908334        2.34450659356705       -4.53238498640464
C            0.94278871316769        1.44163849198190       -5.64778748907055
C            1.88664777385010        0.36640573031385       -5.13310139152551
C           -3.17676001754884        7.63029096058443       -3.75255632481029
C           -4.43713437396811        7.34544133565277       -4.56698821736127
C           -5.04459006832794        8.60860343814111       -5.17705130251029
C           -6.31259397844161        8.32976965104460       -5.98386384402526
C           -6.88609787225893        9.58180107263626       -6.64860274219539
C           -8.16564930440332        9.30669091610605       -7.42194196646000
C           -3.26045324538905        5.54689199385605       -2.26180182702348
C           -4.35877924340491        4.75721363318975       -2.50234368320876
C           -4.87919473061051        3.95865496040124       -1.47816770599050
N           -5.93531487248283        3.02218954263310       -1.76689380215594
C           -5.71423780652133        1.96226048751138       -2.69096860555694
C           -4.47267786609044        1.76302459211902       -3.27611261339749
C           -4.26149012642870        0.73172279568247       -4.16910056648075
C           -5.29485230136350       -0.12352163718897       -4.48581284665702
C           -6.53433875449964        0.04793869343729       -3.90407055199286
C           -6.76634480238117        1.07823358316698       -3.00028227639837
O           -8.02728376691227        1.19846191191301       -2.42128942723903
C           -8.22941500228044        2.21928833085547       -1.49521019661187
C           -9.47709493045060        2.34599270132265       -0.89613869053246
C           -9.73063438601798        3.35225400563243        0.01300030307569
C           -8.73903998260388        4.25339322348975        0.33635072505777
C           -7.49162460444834        4.14364292307030       -0.24572610078082
C           -7.21317859252992        3.13357520518998       -1.15307542093450
C           -4.28878372233324        4.00155879429067       -0.20651700929224
C           -3.17973752067274        4.77522746801413        0.03691591236304
C           -2.64615504596006        5.53589420530789       -1.00105120601931
N            3.31082589104363        7.62028622725821       -1.81592488586924
C            6.83734708586812        8.09672134183966       -1.42948583471514
C            7.89920263338192        7.35719227945664       -0.95774374549748
C            7.79421881018806        5.96708080357311       -0.91240196369660
C            8.73005429908841        4.95569840855888       -0.42933700799962
C           10.01713668774873        5.08838818905784        0.08494675885951
C           10.72249472875622        3.95558212497881        0.41468540704035
C           10.17056768459570        2.67682553388589        0.24461750347849
N           10.95328474046328        1.49543692134671        0.50374010679472
C           11.25722742074341        0.59079785291164       -0.55267336380509
C           10.89466318460652        0.86323566313094       -1.86325063923527
C           11.19118178658312       -0.01693029909128       -2.88472050657124
C           11.86516066151536       -1.18681624767254       -2.60805134677277
C           12.24877483284387       -1.47081883315521       -1.31343851728598
C           11.96220667370308       -0.59608015845819       -0.27183973278144
O           12.38922870398540       -0.91615793049564        1.01427743971046
C           12.10707597872461       -0.01848876468758        2.04100822266550
C           12.52664694430045       -0.32157188718863        3.33096575254689
C           12.25272337861600        0.52483545585183        4.38530253088574
C           11.54888657759956        1.68955010000452        4.16719727422681
C           11.12569405767018        2.01053314653180        2.89253212093631
C           11.40070717068614        1.18023009891813        1.81706746803232
C            8.86670633305804        2.55595019398804       -0.24796201536959
C            8.15852240087666        3.68423852773994       -0.58083773164371
H           -1.48604691642396        1.94435810275087        0.23539942447306
H           -0.72666058001417        1.90488587191593       -1.35239707961482
H           -0.93394206005679        3.43565281648928       -0.52255941716260
H            0.91667109549817        1.16198916685468        0.39753331660361
H            0.67073089651255        2.64007589705885        1.28764019662378
H            1.57052737490416        3.97388322079270       -0.62785701871785
H            1.76083251478211        2.52534604885841       -1.57037340895466
H            3.42045641989853        1.63141891095638        0.08662154017546
H            3.21266501580028        3.04786674836240        1.08175395293869
H            4.00571360585857        4.50197030799805       -0.77071119328267
H            4.15838214721901        3.12133431875430       -1.82466298614683
H            5.87533013736265        2.15584994187393       -0.16832128852852
H            5.80217942386334        3.66344078255571        0.70216497796844
H            5.82156796388827        3.28549991741008       -3.11364068281461
H            6.82769005236884        2.02548239239267       -2.44427731945493
H            8.87170213617988        3.46000228350806       -2.97807948254037
H            7.82517730348932        4.60167242400104       -3.76670106393457
H            7.08353149896533        2.82232837152074       -5.37960445857262
H            8.05498060328105        1.64309982975987       -4.54366696987593
H           10.13220445025025        2.97840173351022       -5.07525500312549
H            9.16188687146511        4.13549657767676       -5.94106417434123
H            8.40609861871119        2.32435289467441       -7.52057877736596
H            9.35795548806267        1.15815690449467       -6.64401002827292
H           10.50633027293556        3.61433571839654       -8.09369103855818
H           10.60668578178510        1.95363101559464       -8.67159060954438
H           11.46367103519919        2.43586976928680       -7.21048138041665
H            4.71870061198105        5.59910697256101       -2.27207098209977
H            5.42929029851416       11.18762786548573       -4.27020797980259
H            5.37233089096181       13.30195869560009       -5.56126840567251
H            1.21996227860598       11.42085386007568       -3.63961648811297
H           -0.19659389505583       13.66072207848702       -3.23100834156909
H           -0.54784509892491       15.15717519587870       -4.06003101435817
H            1.81363109146422       15.95492066188221       -3.51127352764882
H            2.03110118437518       14.52838600920199       -2.54241660691230
H            0.08665729315874       15.20678631343281       -1.09647953089979
H           -0.18612347633275       16.60184695477798       -2.10308333465899
H            2.12159479584261       17.45966285337160       -1.53798248638030
H            2.37838988188602       16.07945664343249       -0.50888439250428
H            0.40750132195715       16.76829914120097        0.90553864714782
H            0.14624052089854       18.14549898971123       -0.12878360479775
H            2.69723827163179       17.65387698835113        1.51595306689906
H            1.44111890450531       18.82275138213483        1.91322479931103
H            2.43182358217893       19.04257606811709        0.47373282471002
H           -0.45520956506092       12.25383916449258       -5.33763723691832
H            0.39101324549336       12.68796344233381       -6.79550229044810
H           -1.05330797609096       14.69356967552376       -7.08530332288727
H           -1.83739153901766       14.38842818761103       -5.55807796232078
H           -2.65622783901400       12.16727880505540       -6.42910431751232
H           -1.91413252047426       12.50244250277007       -7.96747974009662
H           -3.36888809483100       14.53499882461642       -8.24036499543801
H           -4.07691684169508       14.25096358299728       -6.67537269948021
H           -4.92561043482161       12.01338795072199       -7.46372864674803
H           -4.23689176785038       12.30501020402888       -9.03668375144561
H           -6.41939712794760       14.03342740962276       -7.73022893920619
H           -6.68078893321557       12.87953417195416       -9.03492442271649
H           -5.72535295709374       14.33229883607673       -9.31601678897378
H           -0.00939306955075       16.45323720527353       -6.19806747129736
H            1.28140888042014       18.06814367038724       -4.68231326989384
H            0.31417712552749       19.55013144751901       -2.98320501724728
H           -0.72423031945848       21.67417959154566       -3.65960078476234
H           -0.78124819269953       22.30372744248263       -6.04457146163607
H            0.25816641067415       21.47166063935773      -10.57629425468035
H            1.20916591000040       20.05012594332379      -12.35482301841407
H            2.20469764088926       17.87774573019514      -11.77769643704864
H            2.25467645595396       17.13714121817663       -9.43734207164108
H            3.86094753120395       17.63300274783722       -7.54692949881190
H            4.82096536990481       15.51059150775949       -6.71542020601323
H            1.60523163730074        7.13384936645020        0.19581634910521
H           -0.47676826953609        5.96107537180721        0.84110711063537
H            0.01492401675937        7.90947818013705       -3.68700036812150
H           -1.33994158349362        6.11873098962641       -5.09582458285737
H           -2.74695509161430        5.09320239495334       -4.95158153280995
H           -1.56442155163417        3.74187470595098       -3.17460359023317
H           -0.15808230465477        4.74644341846443       -3.35551989886773
H            0.00323596039026        4.05303092554931       -5.78751005458340
H           -1.36777760817010        3.00115026693047       -5.56274927663799
H           -0.10146471925386        1.73708907895064       -3.78099073577625
H            1.26267314578967        2.79693153305239       -3.99941643731688
H            1.44707603449296        2.05673669225095       -6.40495366708650
H            0.09470246990657        0.98286730687134       -6.17338074806471
H            2.75406969148028        0.80692041802399       -4.63754818527109
H            2.25728534942040       -0.27399585188654       -5.93670842789605
H            1.39174115806044       -0.27637559085436       -4.40258782914219
H           -2.48242134040119        8.22418379138067       -4.35609400637132
H           -3.43071690751587        8.26394431362838       -2.89628872981985
H           -5.18405919073636        6.85008605894792       -3.93635879158256
H           -4.21373283704684        6.63166211797203       -5.36779516721410
H           -4.30214800399496        9.10074074073341       -5.81745512542489
H           -5.26233429385742        9.33474970148021       -4.38431315204489
H           -7.07034940415146        7.87577639235495       -5.33366084018043
H           -6.10331390346598        7.57157321890947       -6.74841812267313
H           -6.12918958843782       10.01348206239712       -7.31614058145791
H           -7.06338643087811       10.35009195320533       -5.88426593928265
H           -8.00026632520619        8.56875763902881       -8.20920731119991
H           -8.56133478823091       10.20842984795331       -7.89497511241001
H           -8.94467280246316        8.91010383680267       -6.76812788207287
H           -4.79007000583452        4.70105188828679       -3.48442337372428
H           -3.66232606731821        2.42054121076407       -3.01857593327964
H           -3.29000534628912        0.59606400803510       -4.61593173176898
H           -5.13396988585817       -0.92944529898724       -5.18303415282310
H           -7.34604296170477       -0.61869076145869       -4.13533476425583
H          -10.24426013697957        1.64088005970593       -1.16269850704672
H          -10.70484363718772        3.43586511272880        0.46627080092895
H           -8.93666682391363        5.04387338298773        1.04176941195565
H           -6.72119567141226        4.85299845867223       -0.00188402480551
H           -4.69352149487454        3.37354584219622        0.56783174416400
H           -2.70148186541133        4.77378271341201        1.00063575300296
H            6.87861182344862        9.17196515326524       -1.43586112150341
H            8.79519997210247        7.83621103078699       -0.60463813579378
H           10.44948079032613        6.06671676192600        0.19943567083228
H           11.73048541731395        4.03273319600448        0.78329661764153
H           10.38247394256671        1.78227808051937       -2.08248939110709
H           10.89707546441499        0.21195374300389       -3.89611570472316
H           12.09759890093182       -1.87696341111813       -3.40251680523976
H           12.78340410708673       -2.37573901461145       -1.08525430758961
H           13.06764556033767       -1.23773423202061        3.48831923976105
H           12.58458580524019        0.27230233738722        5.37910092253814
H           11.32682270575488        2.34840868248623        4.99069645719282
H           10.56540027065702        2.91291352974612        2.72607239205182
H            8.43642158633554        1.58119689455445       -0.38544764550935
