243
 energy: -46.404588056669 gnorm: 0.000739920423 xtb: 6.5.0 (97a52f5)
C            0.01861440235907        1.65951367757148        0.93644984814899
C            1.51162241458354        1.63677609014459        1.22595339837463
C            2.32947181225876        2.31632154326712        0.12843715773337
C            3.84272472474699        2.23488498627464        0.34643074085691
C            4.61179430629092        2.96137695861376       -0.75528418705835
C            6.13534891420567        2.85021397016381       -0.65371145886149
C            6.91314416287269        3.40823000626357       -1.87914079323531
C            6.60857693446129        2.58594825884958       -3.15794936339990
C            7.44197337701876        3.00578817374721       -4.36826822195160
C            7.27670417762835        2.06696957737451       -5.56125590343995
C            8.17726449193349        2.43928949924710       -6.73821187130885
C            8.05337031750377        1.47137598692617       -7.91539838793575
C            8.96890668362459        1.83395348567292       -9.07364929974692
C            6.63763174966737        4.89648007178019       -2.10037885406502
C            5.45512453409564        5.54513271065756       -2.34900747012272
C            5.42781192383089        6.93679809718534       -2.45427220168784
C            4.10715846750117        7.58559538969339       -2.50070172514502
N            3.93953536280241        8.68189171848903       -3.22449239930554
C            2.69113819719444        9.12989228591747       -3.24459963144137
C            2.39898703152250       10.32380890498551       -4.03922196589078
C            3.35553955016127       10.88520948468255       -4.89362917230869
C            3.06748686272138       11.99411311368248       -5.65649610409376
C            1.79963796591826       12.56460458670329       -5.56732076225898
C            0.84303194543907       12.01941897353592       -4.70246769819296
C            1.13437120405640       10.90818757129382       -3.95045594497957
C           -0.44621116158642       12.83931980616146       -4.77212042512601
C           -0.77358379103913       13.46884833503633       -3.39496632695864
C            0.36252002061532       14.32745820346174       -2.83924387965287
C           -0.03587388324247       15.12002205811028       -1.59650815128563
C            1.07872779208433       16.03926107291381       -1.09897776673906
C            0.66793943175833       16.87711768203213        0.11201769723450
C            1.77801582856365       17.79754764536174        0.59374932155130
C           -1.59286031241609       11.92681846352963       -5.27855613901222
C           -2.95172342206395       12.59877629080881       -5.46112628556551
C           -4.04149917465498       11.61075502296832       -5.87622619944093
C           -5.41853551632560       12.25995973509433       -6.00670807607803
C           -6.50970967010685       11.26633996826471       -6.40652253908257
C           -7.88587988938642       11.90609469680902       -6.49494964132457
C           -0.08295560603945       13.93215200080803       -5.78006190390027
C           -0.78589077265563       15.05103662492409       -6.15499071700062
C           -0.19288503119771       15.99219240077509       -7.00280262990487
N           -0.89267320201564       17.21901700776794       -7.30567662149052
C           -1.11398333082013       18.13584428181304       -6.22557075099100
C           -0.52403673326517       17.92083767544693       -4.98334174331547
C           -0.73761136915574       18.78517295485216       -3.92522006843358
C           -1.54419959371074       19.89312665464255       -4.08602024498445
C           -2.13308890479214       20.13666807134366       -5.31407725346877
C           -1.91342350243862       19.27041532221128       -6.35963822327598
S           -2.63828455134829       19.62132493615053       -7.81734059416183
C           -2.20941907037392       18.49599261603059       -8.96873216790747
C           -2.69899314978440       18.67475330072239      -10.24155846683740
C           -2.38188429206910       17.76321698792433      -11.23264193674785
C           -1.58049639024717       16.68126998310814      -10.93069218517575
C           -1.09293382441550       16.51128779363386       -9.64735231978628
C           -1.38850049698537       17.41849849199178       -8.63506032817639
C            1.11159623333473       15.77040237012953       -7.46897022528458
C            1.82624872025727       14.66088377044499       -7.08515308611024
C            1.23435901551804       13.74086838433906       -6.22301223536720
N            1.66331701978548        8.58319872368482       -2.60796614912110
C            1.96548173258936        7.52515823559657       -1.87402320592449
C            0.88835036668440        6.86906692427819       -1.11166003389102
C            1.13367012610156        6.38628707844074        0.18099391967707
C            0.16554142323969        5.71368300777653        0.88827443716314
C           -1.06914920108301        5.48619869695021        0.28646925813365
C           -1.31330121233944        5.93868912729983       -1.01715792710613
C           -0.35667144688902        6.64756879961393       -1.70431946557330
C           -2.65638512435059        5.39175545908952       -1.50588080217210
C           -2.43599941706425        4.45457396971238       -2.72121793167325
C           -1.41322087019237        3.35326488563447       -2.44244815659452
C           -1.22112261616796        2.38711524862494       -3.60775570256087
C           -0.17978315139612        1.30995885401929       -3.30598845632528
C            0.03145627140942        0.33304815564990       -4.46202387493157
C            1.07844465434564       -0.72428451590391       -4.14944659753513
C           -3.59845175958444        6.57407774342103       -1.84542232721082
C           -5.02067649015333        6.19030202150258       -2.24672107046632
C           -5.86542352382373        7.39743632717073       -2.65336613607923
C           -7.28978262222290        7.01769235878285       -3.05660018024088
C           -8.13213391126797        8.22059159070171       -3.48272569756344
C           -9.54619786866554        7.83576906779502       -3.88704754587210
C           -3.14205686215324        4.58580641313502       -0.29809068984696
C           -4.21068500126668        3.73035456188764       -0.18230369080070
C           -4.37757200681088        2.98172218789636        0.98776112684632
N           -5.40353385040073        1.96579832301713        1.04211520917951
C           -5.22092647405055        0.80712956851931        0.21806931610202
C           -4.02429657472191        0.60770837981223       -0.46415618076018
C           -3.83466244868198       -0.49384946398790       -1.27830757041125
C           -4.83941080468830       -1.42816291019834       -1.42586217501630
C           -6.03488178386805       -1.25882513884464       -0.74996912516653
C           -6.21229211926079       -0.15985493633649        0.05807592169014
S           -7.66622010804547       -0.01173985321668        0.85745342116486
C           -7.66356306386895        1.34020323412107        1.83138412627102
C           -8.78195680133678        1.57328537291406        2.59720299126683
C           -8.83172383923835        2.68659545662536        3.41689686114526
C           -7.75877362511359        3.55365978025139        3.45401951941617
C           -6.63858318305374        3.31023763265441        2.67979706817689
C           -6.56085385727948        2.19407190457046        1.85375593520107
C           -3.46368998782555        3.13686009096307        2.04080509319409
C           -2.38142638781950        3.97514800289942        1.92377229913202
C           -2.20379504178125        4.68728571310916        0.73947423836762
N            3.16553079457738        6.97969374211308       -1.79212576896869
C            6.62820422784353        7.65542633235148       -2.39031438566391
C            7.82390956746247        7.00998723694269       -2.16502110829620
C            7.82918024514500        5.62541899051906       -1.99579234848220
C            8.92427296421231        4.70431650885859       -1.70520228077025
C           10.29019581616085        4.93911128092655       -1.57105357236447
C           11.13178184397479        3.87255861021113       -1.36266050161978
C           10.64007330226747        2.56079368181984       -1.28034846553691
N           11.54093579776124        1.43856763524096       -1.15611171505233
C           11.65635069866555        0.55324705117678       -2.27829353885699
C           11.02477915434942        0.84990266664573       -3.48248765558698
C           11.11289206236710        0.00171489793005       -4.57132028280824
C           11.84327282818277       -1.16559071141549       -4.48415299487320
C           12.49225578350306       -1.47791112404689       -3.30291124934429
C           12.39818476466933       -0.62635410913623       -2.22677507622510
S           13.21253566500260       -1.04956804860933       -0.83721327480164
C           13.00892947918654        0.11510657578787        0.33603561186198
C           13.64522535340331       -0.08186392140373        1.53940620769524
C           13.50025827576780        0.84913769240487        2.55218560200032
C           12.71407319598111        1.96375473892182        2.34422629039838
C           12.07938604484444        2.15250858123608        1.12974728103462
C           12.21708528339559        1.23715975791347        0.09121932764775
C            9.26364486051898        2.33780683170200       -1.39494306835415
C            8.41924268950952        3.39979330799547       -1.60555818207577
H           -0.56661965772660        1.21808095701167        1.74611984601947
H           -0.21723396281271        1.10809188402570        0.02473452057042
H           -0.33606187140318        2.68078197209707        0.79162767997305
H            1.85644902999569        0.60164045018763        1.35014142700744
H            1.72051040224311        2.12400672535205        2.18773705550474
H            2.02569951356937        3.36701570061777        0.04183116734085
H            2.07772165752007        1.87066062724435       -0.84164108803161
H            4.15549351562636        1.18465208281450        0.38948101226285
H            4.10502770647156        2.65481816687035        1.32492078712757
H            4.31762942106329        4.01608687439767       -0.73932976647459
H            4.27737052890605        2.57929972312910       -1.72596111882241
H            6.41696427718344        1.80164308937452       -0.51476829797639
H            6.48230161949027        3.36724487981703        0.24672158324520
H            5.54558848633850        2.66224954672057       -3.40338229331484
H            6.78965290225542        1.52814609806659       -2.94127345422597
H            8.50068125067620        3.04697852033660       -4.08767494301735
H            7.18828022680456        4.03256094083467       -4.65837182018255
H            6.22789180308468        2.05410266288089       -5.88186334553013
H            7.49242938171003        1.03778346183482       -5.24851222277413
H            9.22123114513301        2.47770073056607       -6.40357800121066
H            7.94811125699378        3.45909315346620       -7.07063080569214
H            7.00870629818673        1.44215129657024       -8.25260605200420
H            8.26828784458185        0.45140633959276       -7.56960807098599
H            8.74815091322748        2.83322806747489       -9.45351536799183
H            8.87142034641160        1.13639045664309       -9.90863419204156
H           10.01590325315453        1.83120180353006       -8.76464304747503
H            4.53860964011513        4.99760521458751       -2.46531203813707
H            4.32620971985061       10.42414996779622       -4.94686087322059
H            3.80286562506506       12.42357724604519       -6.31352198960787
H            0.39815013601935       10.48553658095571       -3.29214430084352
H           -1.02937486841007       12.67726117445006       -2.68362340128921
H           -1.67136201389443       14.08601199136903       -3.49247610934552
H            0.70547956885012       15.02313578188630       -3.61405960624795
H            1.23400677402511       13.69851620669191       -2.62097641053203
H           -0.33819156649679       14.43198496890053       -0.79773285716314
H           -0.93035376867084       15.71640321559066       -1.81480169418828
H            1.39817297699024       16.70241506795727       -1.91230896852337
H            1.96636610948352       15.44361374717282       -0.85356867193798
H            0.35033147663475       16.20954125689720        0.92400944399514
H           -0.22609807648846       17.46320693123380       -0.13952683714426
H            2.66451732911828       17.22985482063677        0.88258040904923
H            1.47303836570671       18.39135212871611        1.45834590492242
H            2.08258310217785       18.49266394757369       -0.19098843325464
H           -1.69729167600327       11.08934487612672       -4.58080317455447
H           -1.27915684039813       11.47597824675065       -6.22591666773289
H           -2.87869711817846       13.39615294804896       -6.20898137071638
H           -3.25319797470531       13.09616403410754       -4.53254067466082
H           -4.09082331019485       10.79147729815486       -5.14816313518484
H           -3.76531573973241       11.13247079615244       -6.82393426895572
H           -5.37480766363086       13.07667425184821       -6.73759674602927
H           -5.68915939240835       12.74073285614835       -5.05861597708536
H           -6.52413965210265       10.43767763788752       -5.68649119393096
H           -6.24453992779771       10.80262249546866       -7.36606356992259
H           -8.18291836988514       12.33826493718227       -5.53745228656194
H           -8.65547374096757       11.18635272013606       -6.78272262061302
H           -7.89933528226295       12.71326708198293       -7.22978290072167
H           -1.76730558914921       15.24161539168370       -5.76264590896077
H            0.11637873104252       17.06750575807070       -4.85210908978837
H           -0.27079197873779       18.59395923629653       -2.97296102296709
H           -1.71103301683605       20.56843854834624       -3.26317009388683
H           -2.76235015203388       20.99641574683949       -5.47967636405074
H           -3.32687605084877       19.52914529150610      -10.43762396750022
H           -2.76206502527062       17.89704002837938      -12.23194035914434
H           -1.33419427013006       15.96500315987983      -11.69729480817345
H           -0.47903002133615       15.65844631445744       -9.42071592614683
H            1.55955846763527       16.51146372036422       -8.10779987793339
H            2.83876215255945       14.50995492345276       -7.41557466953513
H            2.10729883532644        6.54720504466144        0.61063337762250
H            0.35991017759192        5.33358647004634        1.87566459921668
H           -0.53603092532583        6.97773635465456       -2.71094587913355
H           -2.11534656766395        5.05024114417288       -3.58165818574305
H           -3.38949287402711        4.00172785889898       -3.00781006537841
H           -1.71375192570434        2.79232020668398       -1.55002379726406
H           -0.44892695957427        3.80442907487526       -2.17872176515332
H           -0.92819344708124        2.94482307209049       -4.50558889674071
H           -2.17929820818455        1.91707396949169       -3.86097972832872
H           -0.47403904149849        0.75565868702270       -2.40660521028071
H            0.77454605042998        1.78525516293965       -3.04805331319408
H            0.31591686961420        0.89291105920762       -5.36291820357056
H           -0.92536663172205       -0.14338671674991       -4.71402528284970
H            2.04617978735453       -0.26885071569397       -3.93023357731701
H            1.22239184046007       -1.41834594570957       -4.98057497625305
H            0.79548864972000       -1.31358681019051       -3.27509953604977
H           -3.13990814961077        7.16010390347900       -2.64869371340557
H           -3.63303850678432        7.24525368120720       -0.98080717702220
H           -5.51227361159964        5.66675386140027       -1.41912917983940
H           -4.99707655348300        5.47103405829957       -3.07308870491418
H           -5.37707013730173        7.92681714007243       -3.48084502571477
H           -5.89486213054971        8.12172791719215       -1.83015154926701
H           -7.78195332544252        6.49802295995892       -2.22544241966094
H           -7.25795634769453        6.28380982280308       -3.87119629144211
H           -7.63071303323584        8.73751792041381       -4.31121870349997
H           -8.15802953364876        8.95351332113388       -2.66539319979232
H           -9.54042991429960        7.13267570854520       -4.72208802876978
H          -10.13667027074511        8.70271890517748       -4.19201516551226
H          -10.07459500111461        7.35214414159649       -3.06333883686186
H           -4.88538574894004        3.57785567899924       -1.00395982748760
H           -3.23282619640365        1.32543106694373       -0.34613343967904
H           -2.89945295998998       -0.62255302803231       -1.79825124577365
H           -4.69407333687505       -2.28734858553773       -2.05974786164412
H           -6.83917064641972       -1.97175747680569       -0.83499993372470
H           -9.60178701461584        0.87537750365469        2.53901439340142
H           -9.70459155234786        2.87492695503132        4.02000741879906
H           -7.79376198181798        4.42441586047520        4.08795517542634
H           -5.81076416742891        3.99569597562291        2.70870381974178
H           -3.60066061719952        2.54536015802993        2.92916998455126
H           -1.65651874412134        4.06034505590411        2.71413917013932
H            6.59303363308877        8.72693131222736       -2.48298123036358
H            8.74601062043856        7.55937742182693       -2.09522634696788
H           10.67161007151398        5.94174416122300       -1.65106930325311
H           12.19400235355352        4.02582227160895       -1.28454823470601
H           10.46497337538401        1.76359222660925       -3.56476821522954
H           10.61031266614754        0.25393501499870       -5.49063671886985
H           11.91318923457300       -1.82822930799588       -5.33095684445634
H           13.07949093392894       -2.37625316369345       -3.19974828154758
H           14.24619990276370       -0.96803335092428        1.66643494928101
H           13.99507776185946        0.70114423275627        3.49788511025187
H           12.59265863974655        2.68968353127416        3.13136821007399
H           11.45973185103572        3.01859964957002        0.98319393109769
H            8.88071726012869        1.33521080160409       -1.34687484180085
