26
 energy: -3.734767959520 gnorm: 0.000104755100 xtb: 6.5.0 (97a52f5)
C            0.97381491510864        0.03269164464564        0.01027592531719
C            2.49413059320318        0.05135062180529       -0.01959180756308
C            3.05254458316416        0.80574151650093       -1.22722453097022
C            4.58060238845849        0.82889338157771       -1.26428857454561
C            5.13714103266001        1.58323505340317       -2.47184202679381
C            6.66519979624655        1.60638196081172       -2.50889718238433
C            7.22362473084675        2.36077023838034       -3.71652761163395
C            8.74394376334887        2.37941983617511       -3.74638185740973
H            0.58584165234697       -0.50858372778614        0.87675263013162
H            0.56693935953272       -0.44444572318676       -0.88384252984770
H            0.56693824564522        1.04549256107213        0.04689992920857
H            2.88533682555669       -0.97514045767124       -0.02044671927543
H            2.88533583562865        0.50234755170125        0.90251826205310
H            2.66826341431840        1.83349022211140       -1.22953799912300
H            2.66826204390404        0.35704221372010       -2.15185449541580
H            4.96519381854023       -0.19871578059685       -1.26236306124373
H            4.96519538720445        1.27787952972365       -0.33995384960074
H            4.75255181586804        2.61084511874009       -2.47377393165924
H            4.75255083257942        1.13425369926835       -3.39618035409979
H            7.04947850973248        0.57863196039589       -2.50657842094543
H            7.04947931192666        2.05507873638621       -1.58426429783858
H            6.83243030095844        3.38726453839754       -3.71565728581612
H            6.83243041115148        1.90975756268943       -4.63863329814048
H            9.15080889326162        2.85654928997227       -2.85225460428270
H            9.13192257077291        2.92069427537871       -4.61285570961717
H            9.15080896803491        1.36661417638406       -3.78299659850385
