29
 energy: -4.178539731874 gnorm: 0.000162484464 xtb: 6.5.0 (97a52f5)
C            0.91306807658165        0.16370781348488        0.00243578449533
C            2.43344855959663        0.13434734184990       -0.01113425263710
C            2.99364736693908       -1.15717227040139       -0.60871794902786
C            4.52177841022839       -1.19632565959140       -0.62681964449801
C            5.07652185630980       -2.48908897920888       -1.22480368603471
C            6.60434335110721       -2.53275929359261       -1.24526644451325
C            7.15438331047044       -3.82722464603139       -1.84431347181766
C            8.68280142325260       -3.87603091281665       -1.86697174673818
C            9.22008418818595       -5.16713407958899       -2.46445744465614
H            0.52303765023491        1.09019822069051        0.43114164284240
H            0.50711954906095       -0.66477309895160        0.58690185510420
H            0.50713624427585        0.07294732286348       -1.00739485975018
H            2.82372296521863        0.26207230057749        1.00770626761958
H            2.82374122748421        0.99360422876068       -0.57328419790734
H            2.60976611515679       -1.28808923048283       -1.62825944278655
H            2.60975409447141       -2.01902524047163       -0.04853637679615
H            4.90658379525039       -1.06634859274240        0.39244584129455
H            4.90657933675023       -0.33541577131964       -1.18774587064686
H            4.69066619933798       -2.61885557196838       -2.24372195941955
H            4.69092785976133       -3.34959060013617       -0.66375666110725
H            6.99087013974851       -2.40388892457620       -0.22651177104154
H            6.99060496357365       -1.67278041176817       -1.80661702968368
H            6.76663500807831       -3.95565699353437       -2.86270701130508
H            6.76671359059402       -4.68666094980010       -1.28302096702340
H            9.06539590372363       -3.74339945191689       -0.84584836602379
H            9.06532239332613       -3.01179572903748       -2.42682655949551
H            8.87792391626461       -6.03655725522776       -1.89894433947037
H           10.31257787317326       -5.19202710370626       -2.47601068143970
H            8.87787463184346       -5.29879646135579       -3.49321065753615
