211
 energy: -38.795622518606 gnorm: 0.000395686022 xtb: 6.5.0 (97a52f5)
C           -0.89629628140997       -2.95106370121167        0.43034132909369
C            0.39814536704106       -2.22366192773697        0.10226979725936
C            1.35357013189557       -3.07052268503103       -0.73892834309051
C            2.66608230993849       -2.35632610536362       -1.06262789691108
C            3.61785825932460       -3.21986343208145       -1.88847500808603
C            4.95059083074947       -2.53615529631343       -2.19521320117633
C            5.88754591590886       -3.43769496369872       -2.99662832247107
C            7.25602510650440       -2.81573197945579       -3.26880709308642
C            8.20705664334725       -3.67215083061320       -4.14953537410699
C            7.67219266480670       -3.80251206492179       -5.59705680582952
C            8.61199373894021       -4.56449720434126       -6.52921786094951
C            8.07743110029430       -4.66920675298489       -7.95604110301200
C            9.02934601694366       -5.40596612343135       -8.89726278860084
C            8.50365081425944       -5.48888407618736      -10.32995129231219
C            9.46406592201829       -6.20428273149457      -11.27958034631536
C            8.94255007243016       -6.27549044917882      -12.71549163291802
C            9.90771682175632       -6.97617076571518      -13.65848430543154
C            9.60670919365793       -3.04679575189372       -4.13980029672280
C           10.03652515748719       -1.81958990471657       -4.60235746066527
C           11.37377034283734       -1.48710309903866       -4.47864815684573
C           12.27255412134179       -2.36954971376981       -3.89984733964731
C           11.85230017457176       -3.59943437872109       -3.43570222698657
C           10.51129584437859       -3.93848661904112       -3.55667519786989
C            9.80541333833432       -5.16663601940122       -3.17712909820982
C           10.27705665067417       -6.33101751992993       -2.58260818503410
C            9.39831096449522       -7.36312065804796       -2.33765048413625
C            8.04431782099734       -7.26765571485849       -2.69193522305096
C            7.08672445193161       -8.31598611459683       -2.38050755130752
C            7.34911730493667       -9.55520558379537       -1.85443053765103
C            6.19597497637045      -10.32732736603674       -1.61242733852513
C            5.01765921223836       -9.70722024797554       -1.94618441806295
C            3.69426303814202      -10.24150606862240       -1.77005241653531
C            2.57300379333787       -9.51178336518640       -2.14415264307365
C            1.28000444379567       -9.97486551581018       -1.95950033729571
C            0.98926083694139      -11.21612562649353       -1.38745287403591
C           -0.34581724442510      -11.65879414749659       -1.15025807903056
C           -1.54495494158422      -11.14182874673518       -1.61694645097129
C           -1.61702928820262      -10.11907425860908       -2.69048691507637
C           -2.19516102649231       -8.87117060357120       -2.45276194023769
C           -2.25699213731365       -7.92394814822696       -3.44963697837335
C           -1.74632845774643       -8.20223269038811       -4.70237031893312
C           -1.17393364349402       -9.43315280320391       -4.95725101706803
C           -1.10961424618541      -10.38401531369400       -3.96371126650749
C           -2.78913785325222      -11.66255860437285       -1.01185916765445
C           -4.10717427462474      -11.15494518829311       -1.46636853842794
C           -4.99546458625613      -10.57025464822846       -0.56216193637401
C           -6.22018803267573      -10.10242458212245       -0.98240229260135
C           -6.58262390414003      -10.20590429341027       -2.31112564381473
C           -5.71568885251563      -10.77913735692870       -3.22063838411260
C           -4.49054767854714      -11.24936483513220       -2.80502507683523
C           -2.65850575760197      -12.60954528854546       -0.00786538894116
C           -3.64985286070281      -13.45057726262767        0.58006467827353
C           -4.90104424662018      -13.66323601977386       -0.00542267177065
C           -5.83582178068934      -14.54742760718755        0.51098852426536
C           -5.60654091505044      -15.30028199794340        1.65601637354386
C           -6.57472697214471      -16.25417676686594        2.12757086487677
C           -6.44337414107242      -17.04465812336459        3.24126208497348
C           -7.51086569113892      -17.93701491561077        3.45098898627721
C           -8.49740820900906      -17.86107656698281        2.50078490651957
C           -9.68418650236024      -18.69885979106896        2.42682312221617
C          -10.68800915105022      -18.42495268266556        1.48734231802252
C          -11.79564528164600      -19.23268102644241        1.35518322805894
C          -11.91245596789865      -20.35160708749074        2.17046582764304
C          -10.92656851719392      -20.63536709228378        3.11816460378322
C           -9.82558317926797      -19.82088713635433        3.25184663520345
C          -11.26977287491086      -21.94155403245411        3.84182796818829
C          -11.41891214559380      -21.70350129403424        5.36467126467046
C          -12.44739736480807      -20.62929906619903        5.71321045852430
C          -12.61214769922534      -20.42386500733671        7.21767716646943
C          -13.67397083022092      -19.37979254528038        7.56079828599536
C          -13.85357868987573      -19.18103938407527        9.06543686567445
C          -14.94033244816264      -18.16179500040220        9.40686500840007
C          -15.13572610840884      -17.97547233951226       10.91211622387399
C          -16.22958657507797      -16.97271367952039       11.24365404864714
C          -10.15841169334891      -22.97768524171560        3.52736242602060
C          -10.35714770891087      -24.37876067518591        4.10055137503219
C           -9.17428167794141      -25.29973833154267        3.80125905126108
C           -9.33527223129154      -26.69995503812457        4.39100792164570
C           -8.13526634393149      -27.60301169584954        4.10618179272891
C           -8.27660951821711      -28.99907103303465        4.71169330668869
C           -7.06852580931959      -29.89499877603205        4.43410811637230
C           -7.20895463268180      -31.27986493368012        5.04568934701897
C          -12.61296223459557      -22.32703337389469        3.21112746187185
C          -13.48124191314026      -23.35882394785217        3.50857621814175
C          -14.66879410683339      -23.46351769006933        2.80670443321459
C          -14.99548609974320      -22.54146813952509        1.82517072781532
C          -14.14648826154053      -21.49325452390504        1.53504706888182
C          -12.95231428506740      -21.38402745522629        2.23509576905169
S           -8.09959266337105      -16.60610161008417        1.35271046607981
C           -4.34526303267598      -15.12417260866654        2.32254212176562
C           -3.36063314310893      -14.20145701294460        1.78056406089651
N           -2.25504066392254      -14.16586652032448        2.49244773909720
S           -2.41500665444042      -15.19954820057953        3.75817239390187
N           -3.92730504018657      -15.73324630798083        3.41675948438602
Si          -0.84725381564833      -12.85741273896321        0.14465615313570
C           -0.14635637767227      -12.27891476880854        1.79061850425249
C           -0.45801315458545      -14.64067911952229       -0.30482147884079
C            2.11994011851685      -12.01684725595186       -0.97256113042844
C            3.47608616609171      -11.52890564546295       -1.17079890228005
N            4.39360426675439      -12.37337294110205       -0.73751485517167
S            3.63201206257617      -13.68963109616986       -0.12423749240655
N            2.08887195229170      -13.20081510901309       -0.40003117096641
S            5.36665913278538       -8.13459276095070       -2.61405621088599
C            7.59500665709098       -6.10062651545358       -3.31611405410363
C            8.45848993292158       -5.05153462797908       -3.53203007856725
H           -1.57131087867254       -2.33810423224815        1.03196765933965
H           -0.70249937789198       -3.86944310408190        0.98788925989783
H           -1.43147680505433       -3.23418116756549       -0.47806716005625
H            0.90438723220479       -1.91712666916198        1.02737175949763
H            0.18243144630806       -1.28587605021410       -0.42691173049158
H            0.85771864993237       -3.37038472844179       -1.67035296171757
H            1.56697659739637       -4.01111257726019       -0.21628702494809
H            3.15926477094143       -2.05152366221890       -0.13151092066834
H            2.45809092407530       -1.42036898371405       -1.59535800669474
H            3.12995523230076       -3.51248334051910       -2.82637660884594
H            3.80489432985551       -4.16368162861013       -1.36135818206804
H            5.43685018939669       -2.23666257486684       -1.25881719218244
H            4.77497542863165       -1.60060055596437       -2.73991912933774
H            5.40414223412642       -3.71273442466130       -3.94083697215762
H            6.01594638546355       -4.37829688870451       -2.44996171149909
H            7.75718131447847       -2.61484690007102       -2.31607417870027
H            7.12827553452529       -1.83706046633961       -3.74220838547982
H            7.48796396802518       -2.80082912600513       -5.99825315504198
H            6.69799968094614       -4.29959228829702       -5.57936628297034
H            8.79696632807399       -5.56840551877331       -6.12820772478823
H            9.59482081313272       -4.07804823461967       -6.53971988307006
H            7.87825391444701       -3.66414042539935       -8.34767718212467
H            7.10197756150945       -5.17075494447144       -7.94900822376451
H            9.22029480144652       -6.41573009932412       -8.51379008431613
H           10.00773071151627       -4.91000726399075       -8.89246168396832
H            8.30035024319054       -4.47848661095971      -10.70552693457798
H            7.53098067800732       -5.99589110069792      -10.33711660451046
H            9.66367136827770       -7.21708176160389      -10.90862629405740
H           10.43803396202559       -5.69980088592503      -11.26661949572919
H            8.73332942509010       -5.25929630366310      -13.07564210829743
H            7.96936429789835       -6.78433014401811      -12.72300269292492
H           10.87053499274733       -6.46263069520915      -13.69112749239818
H            9.52446207967219       -7.02025176695562      -14.68053819866702
H           10.10099299520881       -8.00102456177757      -13.33594385945195
H            9.33390811064353       -1.14007336643214       -5.05237234872952
H           11.71991065318057       -0.53135763845846       -4.83689867649046
H           13.31069905501392       -2.09331879912458       -3.81231195395837
H           12.54301192193141       -4.29279050929131       -2.98887273424058
H           11.31561548884509       -6.41010432490512       -2.31336868438320
H            9.75234117054675       -8.25718689034749       -1.85588470675045
H            8.34442636057214       -9.90406804937294       -1.62900181264642
H            6.22209930193810      -11.31324112274013       -1.17917668229136
H            2.72704559696139       -8.54219501733358       -2.58427527336309
H            0.46461476681498       -9.33647730774804       -2.24322421390300
H           -2.59325665273191       -8.66031066142676       -1.47501080984362
H           -2.70628275115326       -6.96419591393829       -3.25237444911641
H           -1.79593179115417       -7.45919189305724       -5.48170506156046
H           -0.77603507550457       -9.64957810774868       -5.93533016577005
H           -0.66291616096037      -11.34455542512667       -4.15569333826073
H           -4.70845243819916      -10.49400459962947        0.47265110521837
H           -6.89767575150908       -9.65598989395126       -0.27282162733311
H           -7.54195024238812       -9.83912045524519       -2.63835530477579
H           -5.99810073380716      -10.85771964339461       -4.25791177956695
H           -3.81164888842934      -11.69699757526609       -3.51037391342407
H           -5.13479361682017      -13.14459806039735       -0.91662445412008
H           -6.77468632902482      -14.67810931797908        0.00211409787715
H           -5.57730856207998      -16.99791706787251        3.87979576095720
H           -7.53681607852672      -18.62800363907462        4.27865242390958
H          -10.57343255550011      -17.56421478984286        0.85216793835894
H          -12.55850471601405      -19.01739308142087        0.62791493987029
H           -9.06809120581897      -20.06975248855370        3.97100424539951
H          -10.44364669075921      -21.43223558355974        5.78113903518992
H          -11.69994410160845      -22.64283096799004        5.84964210359936
H          -13.41601166837378      -20.89217190697216        5.27099758737166
H          -12.16791101935764      -19.68092254713056        5.23864262531304
H          -11.65066528229241      -20.13439527533472        7.65901225507478
H          -12.86834204743066      -21.37868416735436        7.69296742582512
H          -14.63184292528712      -19.66994736598882        7.11179465628331
H          -13.41734903731085      -18.42323130904584        7.08934035639031
H          -12.90151946612335      -18.87103483639797        9.51339734464943
H          -14.09037651898688      -20.14255024342730        9.53731639501391
H          -15.88864430950462      -18.46853143485111        8.94867666094834
H          -14.70008112381400      -17.19701348419158        8.94350083169456
H          -14.18545701980735      -17.66316262804979       11.36541834053545
H          -15.36243865042003      -18.94716065488404       11.37096199644983
H          -16.00406092370785      -15.98964692250662       10.82599394692835
H          -16.36147104130363      -16.84952820871305       12.32107556919439
H          -17.19013693011087      -17.28500754235606       10.82933609496525
H           -9.20514754402149      -22.57577170996217        3.88612545661518
H          -10.05150339894727      -23.04345988183421        2.43942995826292
H          -11.27435866030369      -24.82237614435368        3.69796211406064
H          -10.50921009679952      -24.32508272814464        5.18444309076561
H           -8.25141535968613      -24.84604726895901        4.18315003689020
H           -9.02746539488508      -25.37055620948838        2.71652783028219
H          -10.24939599284598      -27.16350441721489        4.00040724652568
H           -9.49265951812685      -26.62733887709501        5.47412299976281
H           -7.22139109605093      -27.12935982079925        4.48542067894406
H           -7.98420582188646      -27.68421024349025        3.02274939678523
H           -9.18660653075883      -29.47703863787250        4.32875985927152
H           -8.43261422073269      -28.91666677486594        5.79434766547401
H           -6.16049121884212      -29.40576654073060        4.81129645516693
H           -6.91737051218649      -29.97391697198281        3.34920836511106
H           -7.32434245580315      -31.22285058776776        6.12976927622312
H           -6.34002902765708      -31.90949854519937        4.84081832650993
H           -8.08793774532736      -31.79656167820552        4.65564065282643
H          -13.24374482342847      -24.05420629276711        4.29428828981391
H          -15.35002169895084      -24.26818564061937        3.03061318373451
H          -15.92596370257571      -22.63816515236523        1.28984639562452
H          -14.39892483591847      -20.76186506927515        0.78750050602581
H           -0.51743306239808      -11.28482188525796        2.02180842067141
H            0.93771827295540      -12.24686481870172        1.73119672970926
H           -0.43442838767830      -12.95744546584663        2.58687207689298
H           -0.82447190978423      -14.85780196492403       -1.30384182819570
H           -0.94363789673701      -15.30709517695150        0.40222562203488
H            0.61241838707170      -14.81609779932752       -0.27579759046438
H            6.57041685269549       -6.03315930221876       -3.63012348368427
