130
 energy: -19.871481127949 gnorm: 0.004636046766 xtb: 6.5.0 (97a52f5)
C            1.23582595518251       -0.75461108434605        0.50096095240043
C            2.58002172271800       -0.17202992126094        0.09395509354827
C            3.20091611821933       -0.89346646022739       -1.10314075879127
C            4.55635858596425       -0.31608198112416       -1.51053089179311
C            5.18313055277054       -1.04205604886952       -2.70037402807973
C            6.54569241821235       -0.47352690755059       -3.09605876202875
C            7.17674661151365       -1.21270423840911       -4.27515870189678
C            8.55282280477335       -0.66645621135197       -4.65047119369070
C            9.24332573365958       -1.35682084888206       -5.85708984787110
C            8.46159926695571       -1.11736926918530       -7.17124577906950
C            9.10643938840098       -1.77230432249915       -8.39010545668795
C            8.28028574147529       -1.60268953085158       -9.66329695203463
C            8.86415152887622       -2.35552434459957      -10.85771900294599
C            8.03351840611178       -2.18770461049068      -12.12947474968714
C            8.53622437362719       -3.05006986041794      -13.28649334426574
C            7.71289312953314       -2.88280560456677      -14.56375137348179
C            8.19836933576861       -3.77609537213306      -15.69427694746988
C           10.68117254480886       -0.83852514275462       -5.96614777212068
C           11.15055376377959        0.43262973446449       -6.22798963622495
C           12.51653995829566        0.65105968894112       -6.25301259872910
C           13.40419006074843       -0.38715342320865       -6.01610450673369
C           12.94386665595434       -1.66095770032858       -5.75091842985049
C           11.57383224574239       -1.88628338272550       -5.72314912724024
C           10.82002156386861       -3.12389689701331       -5.50027270318535
C           11.26764766112436       -4.42375553842160       -5.28997629075065
C           10.34458002223722       -5.44100851483438       -5.20023203620382
C            8.97835217859104       -5.18659773399233       -5.34741609098969
C            8.00543487837773       -6.26710674329792       -5.33682086303000
N            8.25320746750682       -7.53719650169243       -5.00133610735620
N            7.14846264713754       -8.20899134528548       -5.11369142398672
C            6.19512673029264       -7.37768676054788       -5.54780778965614
C            4.82500258214037       -7.75515097264145       -5.87437513445433
C            4.34785813794412       -9.01587258073104       -5.48994054956996
C            3.17746434930783       -9.62961419628902       -5.90643157473188
C            2.46592664548516       -9.31032060036241       -7.01386214700608
C            2.92560863804587       -8.61358066506116       -8.05810783375398
N            2.26775834148321       -8.01137505045685       -8.93948215480742
C            2.79175409120430       -7.33040954079996       -9.91870905819703
C            2.21003822150236       -6.63801857401287      -10.91653765139212
C            2.91752880067251       -5.96428081329070      -11.85743659035837
C            4.34781855351818       -5.89142669133923      -11.95297861186727
C            5.00827720618630       -7.08374615730722      -12.49384032441490
C           11.71220353347023       -6.80599827257782      -15.87889148780664
C            4.87752277826771       -4.63669815702427      -12.38788803572909
C           11.08014964931247       -5.29687967857891      -12.10195738981487
C            8.16934174323698       -5.14474233273652       -8.79943327126318
C            6.87061715335259       -5.36571814784285       -8.88279099016308
C            6.26752444610224       -6.51702607762025       -9.17310623938380
C            6.85014276407704       -7.66451285073392       -9.41242440988130
C            6.22182021253673       -8.90647971312109       -9.76006477223677
C            7.08582719596718       -9.84946103741638      -10.47306251761958
C           14.28222127722995      -10.67735989648703       -6.14418049117122
C            5.39062450513789       -9.50622122500990       -8.71590344436808
C           10.88149492832437      -11.99267109999823       -5.52266369033784
C            9.80965759394990      -12.20443363807165       -6.28508782199990
C            9.13001181140176      -11.23915353232495       -6.87027186410623
C           10.29091238921846      -12.30732045002408      -10.27572896605912
C            4.06334020264114       -6.84075952989576       -6.50886393227661
O            6.69879967429935       -6.12248822384363       -5.68677266694276
C            8.53729019607451       -3.88115252094949       -5.55136532101849
C            9.45131710519135       -2.85408149313898       -5.60719403867618
H            0.80419003356217       -0.23219273745153        1.35783735044508
H            1.32784255036607       -1.80819121873640        0.77164394051498
H            0.51530359390965       -0.69462774152650       -0.31699126870159
H            3.27899112762535       -0.20744884391908        0.94036491760064
H            2.47421074176303        0.89551101128915       -0.14122623548319
H            2.51178127856217       -0.85452033594998       -1.95573125017500
H            3.30923633728020       -1.96073901931568       -0.87396437933614
H            5.24275485171611       -0.35139217504033       -0.65556051432911
H            4.44803030328196        0.75010804435020       -1.74460280959172
H            4.50223270635583       -1.00062937159732       -3.55933235488311
H            5.28355894306156       -2.10957227425706       -2.46887469872711
H            7.22335308266099       -0.50926938125944       -2.23414408913228
H            6.44676525210008        0.59208868563523       -3.33684328594624
H            6.50205543016552       -1.16516087582077       -5.13737849474877
H            7.25684169696050       -2.27679621125093       -4.02639383824106
H            9.21921238684368       -0.74657975986989       -3.78502313760807
H            8.47695664480955        0.40559791503693       -4.85922921872077
H            8.35789609233338       -0.04038155182725       -7.33707877324977
H            7.44326949461970       -1.49965844529718       -7.05560044273208
H            9.25452630569182       -2.84001320980136       -8.19136554421172
H           10.11547695994423       -1.37026288508393       -8.54152115589377
H            8.18420173692054       -0.53697709853885       -9.90419848952943
H            7.25486494433063       -1.94803284492065       -9.48184908801193
H            8.94672308673245       -3.42134739978931      -10.61346420976286
H            9.89444386164601       -2.02605585081263      -11.03917240025370
H            8.02289176430328       -1.13239631429116      -12.42848345538053
H            6.98573493198767       -2.43204083409102      -11.91729250865951
H            8.53403871202616       -4.10456467973894      -12.98518597622726
H            9.58799502963102       -2.81596490094142      -13.49156538713120
H            7.73544689989346       -1.82993865010348      -14.87516260264586
H            6.65700563221197       -3.08989796279926      -14.34498738677734
H            9.23801256433295       -3.56120773378754      -15.94856628000417
H            7.60480689119379       -3.64900093774999      -16.60247706275536
H            8.14813688160747       -4.82996425660396      -15.41378749102987
H           10.45607581705333        1.23485333510359       -6.40734397494467
H           12.89381692380340        1.63963539936159       -6.45824523440646
H           14.46506443121628       -0.19808777754447       -6.04041345852078
H           13.62515743798732       -2.47353458704345       -5.56906444915702
H           12.32215591388851       -4.62186882193087       -5.21372993947428
H           10.66473494061398       -6.45547844197049       -5.03775978053101
H            4.96302753532668       -9.54521357965627       -4.77841463114353
H            2.83067499003695      -10.48379171049363       -5.34390882607277
H            6.41693613857716      -10.93378104735363       -6.52333650933686
H            1.13488638473028       -6.60574753748260      -10.96665605107539
H           -0.27840526859771       -5.35489479272021      -13.30540743498814
H            4.80732309742147       -7.22102656234490      -13.53728792008567
H            4.74140002158402       -7.97152851937714      -11.95663856674899
H           12.01220285788058       -7.76346413945978      -16.08301681608592
H            5.16191685245652       -5.14620756914441      -15.29087146186217
H            7.88597026993449       -6.32887774563416      -11.78319791022844
H            5.91364399523701       -4.56765550555364      -12.22522474838882
H            9.75953160416456       -7.57694957808219      -10.37869891561327
H           11.09628492527533       -4.63248402865662       -8.32517633282924
H           10.91191400751709       -5.82112972552756      -12.96326065498122
H           13.08726208249034       -7.98199910892559      -13.35328270771953
H            5.66686799182790       -3.65890937453119       -7.50018930252141
H            7.85722520320827      -10.24445107751709       -9.84277105603363
H            7.52429968427327       -9.41272185644039      -11.34780385322022
H           14.31766815622570      -11.69567310559709       -6.05731774122961
H            9.17532364185329       -7.26887285016164       -7.31491217082791
H            7.82743258659937       -8.86037849704525       -7.17462844473196
H            4.64181850495622       -8.83020393158992       -8.35077604544645
H           12.64953832932802      -12.95826955091260       -7.87905967593160
H            4.90385230429949      -10.39880567708133       -9.05263965225284
H           11.26788100620540      -11.03599056577838       -5.32272440152598
H            9.47326844931688      -13.21905955570411       -6.42714703260698
H           10.24573956235438      -12.14477765671814       -9.26802121627836
H            4.43327458506847       -5.90138257468905       -6.79638268720105
H            7.48963162059338       -3.69600136618839       -5.70054264795844
