32
 energy: -4.622427121314 gnorm: 0.000375927834 xtb: 6.5.0 (97a52f5)
C            0.94201710100618        0.13592264944894        0.00633941264774
C            2.46226696134549        0.10669447512386        0.02581127039742
C            3.02014963229905       -1.07857955407672        0.81524374617314
C            4.54823820943611       -1.11563835595791        0.83992407667654
C            5.10315094915404       -2.30124604525603        1.62958735284581
C            6.63107413343298       -2.33930142877861        1.65494588747939
C            7.18598860458674       -3.52489136772820        2.44462986072610
C            8.71407647802980       -3.56196093578227        2.46928994250168
C            9.27195784950171       -4.74724631539919        3.25870989878084
C           10.79220797977723       -4.77649531707211        3.27819840427370
H            0.55391843254815        0.98622978878058       -0.55999338926028
H            0.53498226142823        0.20199149378846        1.01768898023061
H            0.53498726022055       -0.77182484936665       -0.44442829600511
H            2.85333872579350        1.04172178575846        0.44939090716653
H            2.85334370513456        0.07622727273115       -1.00023153588938
H            2.63546552994034       -2.01577713638833        0.39382183969098
H            2.63546769867051       -1.05093385510625        1.84245958860537
H            4.93338605070653       -0.17881825938197        1.26172055203964
H            4.93338362212950       -1.14378434011149       -0.18708543074091
H            4.71785508730376       -3.23799780277425        1.20776238620490
H            4.71784399677747       -2.27305573842220        2.65654252828692
H            7.01637001991271       -1.40254187326838        2.07675182935894
H            7.01637876333732       -2.36751177882057        0.62799072872952
H            6.80082192720076       -4.46172699657166        2.02286498812023
H            6.80085638115716       -3.49671786439432        3.47164224053574
H            9.09877183006649       -2.62476460815570        2.89070326028458
H            9.09874336050849       -3.58959518627599        1.44206789871808
H            8.88088245298405       -5.68226356781983        2.83511196537214
H            8.88087389171132       -4.71678509884817        4.28474945874872
H           11.19924132653781       -4.84252583275786        2.26684447815785
H           11.18031725561307       -5.62680407016526        3.84451846602627
H           11.19923252174840       -3.86873928695158        3.72895670311630
