41
 energy: -5.954002321936 gnorm: 0.000348832003 xtb: 6.5.0 (97a52f5)
C            0.76735158955961       -0.08128785663284        0.03766756037904
C            2.28775209047587       -0.04980956901256        0.04152814718605
C            2.84788619152782        1.36259728819348        0.21477813457062
C            4.37585606378991        1.40518149646461        0.22000123827023
C            4.93077101031704        2.81887450771199        0.39341069199249
C            6.45843649957495        2.86447992813318        0.39900500854588
C            7.01167232732181        4.27870640470764        0.57247867407471
C            8.53942393624443        4.32501374752324        0.57815905177504
C            9.09196118743508        5.73939545024563        0.75165122775127
C           10.61976434288087        5.78746123246074        0.75754725599921
C           11.16953194589354        7.20313686040729        0.93119700421730
C           12.69785111715483        7.25651582455357        0.93774474952896
C           13.23455430710354        8.66880269832310        1.11098119606297
H            0.37708961808888       -1.09444519003399       -0.08660868131171
H            0.36158015148884        0.52830535041463       -0.77252752378437
H            0.36158090567775        0.31441830269713        0.97117556851345
H            2.67772424899224       -0.48371265847255       -0.88931205699616
H            2.67772492927504       -0.69582344674889        0.83990207151476
H            2.46408266312776        1.79934515837095        1.14530592109702
H            2.46408196212604        2.01129630452991       -0.58260488694851
H            4.76054327750988        0.96936307734736       -0.71055357331908
H            4.76054369065924        0.75737645057446        1.01763415357904
H            4.54550694526074        3.25442682131121        1.32386547329705
H            4.54550713839491        3.46639714132271       -0.40418977026209
H            6.84387145935284        2.42923215814163       -0.53148574592489
H            6.84387125302897        2.21724534712993        1.19671499567565
H            6.62605664065693        4.71400617494215        1.50289817633136
H            6.62605689373281        4.92597407264448       -0.22514975453878
H            8.92505601277379        3.88990119986815       -0.35231343138965
H            8.92505584710848        3.67791543672223        1.37588449295813
H            8.70598359448189        6.17444652070364        1.68204479898022
H            8.70598363928200        6.38641513816975       -0.04601233108751
H           11.00619127221020        5.35285870980531       -0.17285557788222
H           11.00619114191940        5.14087582944374        1.55532930721660
H           10.78193805100992        7.63722631366785        1.86139779687331
H           10.78193802360290        7.84917575366156        0.13348723397609
H           13.08077086097023        6.81764067019670        0.00630715345035
H           13.08077067919635        6.60553196973583        1.73549631051161
H           12.89233635402297        9.32301916239560        0.30627056964848
H           14.32701364742128        8.69631781943961        1.11435627327318
H           12.89233648934844        9.10913239893993        2.04995309619480
