44
 energy: -6.397863576047 gnorm: 0.000080482279 xtb: 6.5.0 (97a52f5)
C            0.86451278463489       -0.19746028411615       -0.05384339209954
C            2.38480534762565       -0.16157936600208       -0.05596225624323
C            2.94208840158544        1.26005858569561       -0.13986651414317
C            4.46995046265606        1.30490591246195       -0.14251468493129
C            5.02424577127371        2.72676702280588       -0.22643225194070
C            6.55183217587702        2.77275637966139       -0.22914758245509
C            7.10514918707551        4.19491331359156       -0.31308189031605
C            8.63268381509530        4.24133188844121       -0.31582199272953
C            9.18602005803932        5.66348000790515       -0.39975585988047
C           10.71361010772613        5.70944061597870       -0.40246948911309
C           11.26792698847028        7.13129201633329       -0.48638680009591
C           12.79579067048795        7.17613831356020       -0.48903450499923
C           13.35305895028768        8.59778187849979       -0.57293906647503
C           14.87334874728889        8.63369354988064       -0.57505884187745
H            0.47711347951510       -1.21754013768429        0.00636102591447
H            0.45737808539637        0.25513155362852       -0.96051493895136
H            0.45737945305737        0.35863976702535        0.79329680540966
H            2.77644546675064       -0.75476318059608       -0.89355782326936
H            2.77644687605754       -0.65212009753735        0.84559310250449
H            2.55749236005092        1.85660694457956        0.69690859650692
H            2.55749092511307        1.75403693716039       -1.04100291520841
H            4.85515788479930        0.70904231774995       -0.97945853780298
H            4.85515935900068        0.81162751994234        0.75870877984710
H            4.63902734738014        3.32266177026585        0.61048833473606
H            4.63902613872955        3.22007901554234       -1.12763642586213
H            6.93728856970134        2.17706691099400       -1.06610443861232
H            6.93728971821412        2.27965181383020        0.67206810535667
H            6.71964410885118        4.79057412184377        0.52385854732545
H            6.71964343166251        4.68799126179600       -1.21427815827036
H            9.01818444018293        3.64566794176033       -1.15276221260360
H            9.01818517040697        3.74825081726763        0.58537441755730
H            8.80057338553891        6.25917655469918        0.43720045755973
H            8.80057225507826        6.15659154645763       -1.30097192121964
H           11.09881683825377        5.11353826785088       -1.23939004230968
H           11.09881807340269        5.21612144181406        0.49873574317530
H           10.88272553012851        7.72715883737027        0.35055739360750
H           10.88272454303238        7.62457293803899       -1.38761153998132
H           13.18038788831762        6.57959235479921       -1.32581071992542
H           13.18038887082204        6.68216264544239        0.41210299535567
H           12.96140670633577        9.19096898535463        0.26464897210828
H           12.96140633772876        9.08832629608823       -1.47448804031879
H           15.28049744612893        8.18111113135489        0.33161104889400
H           15.26072870916055        9.65378115096795       -0.63526369147303
H           15.28049713307806        8.07760273749595       -1.42219779275038
