47
 energy: -6.841724022242 gnorm: 0.000284309663 xtb: 6.5.0 (97a52f5)
C            0.77175588042778       -0.07285944095036        0.00173118529714
C            2.29218353802972       -0.04630784233923        0.02214540284912
C            2.85176740970324        1.08209410733922        0.88970777141319
C            4.37991047186745        1.11612555075489        0.91587182989896
C            4.93611130743357        2.24492657169034        1.78374300623631
C            6.46407249574049        2.28066663035893        1.81121454035691
C            7.01855518997926        3.40998728914090        2.67949131466511
C            8.54645599227964        3.44697813766142        2.70790930474637
C            9.09973198959001        4.57664248165064        3.57646761172383
C           10.62761430336279        4.61464507089685        3.60568450960754
C           11.17942688481145        5.74478039678808        4.47458752694156
C           12.70725857744704        5.78424288829581        4.50493212358165
C           13.25710537574770        6.91508547030590        5.37437421081700
C           14.78558766631726        6.95720827569043        5.40676339536338
C           15.32398040894380        8.08476989831820        6.27368225916727
H            0.38280521744693       -0.88250365752519       -0.62075600681825
H            0.36525490757692        0.86354818991981       -0.38628215980149
H            0.36525449458855       -0.20720438607747        1.00640261748118
H            2.68264850744691        0.05342662846455       -0.99981326030529
H            2.68264829003769       -1.00831667148881        0.38115196032652
H            2.46773323652186        0.98506813758786        1.91295559105462
H            2.46773268285210        2.04604475830955        0.53298812397788
H            4.76436453835228        1.21367896666814       -0.10713231350124
H            4.76436523832064        0.15254520969625        1.27303652063586
H            4.55125637636803        2.14726670081651        2.80659095955963
H            4.55125069385013        3.20832799024235        1.42651924535442
H            6.84916435745062        2.37859575811728        0.78849791641298
H            6.84917053571102        1.31745898219402        2.16865796526667
H            6.63309476477381        3.31198273592902        3.70207657663943
H            6.63307596114074        4.37304725754059        2.32201875184485
H            8.93206378241186        3.54521598550038        1.68543308952318
H            8.93208164896434        2.48407780843573        3.06556505962914
H            8.71382642581443        4.47839042737748        4.59886133788497
H            8.71382528233706        5.53946204063280        3.21880838569617
H           11.01376688297513        4.71316380633712        2.58342446194625
H           11.01376761273248        3.65202965240366        3.96358490476796
H           10.79290434876049        5.64619231183139        5.49671755144293
H           10.79290830248274        6.70725283965162        4.11664991424027
H           13.09407300290546        5.88311396360042        3.48294467695749
H           13.09406921993193        4.82198258415481        4.86311076050948
H           12.86960579633728        6.81612429837125        6.39612936930257
H           12.86960888349418        7.87709799207960        5.01616861222488
H           15.16818343291186        7.05249889697214        4.38140941572948
H           15.16818040501416        5.99077473205466        5.76234689556390
H           14.98252435850739        9.05765323083631        5.91373280574203
H           16.41650174171522        8.10563015052858        6.28972271427801
H           14.98252157858448        7.98691719323574        7.30639156376817
