176
 energy: -30.866024251022 gnorm: 0.000976847038 xtb: 6.5.0 (97a52f5)
C            0.62885678636139       -0.52897296381024        0.00913213515468
C            2.12591732426718       -0.37643880042480        0.22611262484492
C            2.74955114214026        0.68661033100785       -0.67903976335114
C            4.25361359985693        0.85112222954861       -0.46215673795723
C            4.87257448157191        1.91919331231706       -1.36322644851418
C            6.37416202635659        2.09471446104493       -1.13890123415520
C            6.98772933145489        3.17253408568977       -2.03185828066660
C            8.48650400912316        3.36124544071533       -1.79951258753023
C            9.09252659353653        4.45003521475082       -2.68402263778576
C           10.58896098496541        4.65214802657693       -2.44771569063218
C           11.18394677350663        5.75069725744421       -3.32747879116776
C           12.67873175150513        5.96764352452765       -3.09378625087448
C           13.25689751481223        7.07680219407963       -3.97149100510874
C           14.75044087089271        7.31165231891216       -3.74707539986867
C           15.30627370676634        8.42951179678902       -4.62816955029297
C           16.79720185094218        8.68880127221026       -4.41516181975203
C           17.32377490226725        9.81856145201689       -5.29826789623881
C           18.81005690002383       10.10945202187241       -5.09790183067339
C           19.29777675550018       11.25469935590575       -5.98064478296908
C           20.76555216629460       11.59348005073966       -5.79580035245872
N           21.13860717702158       12.70261408478271       -6.65016811636839
C           20.81221743598127       13.98788042694521       -6.20907219228135
O           20.31539681405132       14.17489322664546       -5.11158090859987
C           21.06702390565651       15.09504494070670       -7.12901706500441
C           20.77724608149558       16.37729608289460       -6.74059132194684
C           20.97135449039407       17.47564242667507       -7.58369696029093
C           20.62718324255749       18.73833137921710       -7.07390455671902
C           20.31162324278555       19.82735256062511       -6.61517927252206
C           19.94757916575755       21.07319901452773       -6.10171888704086
C           18.99422104467885       21.30983928300016       -5.16719715367833
C           18.83467211539126       22.70112809565488       -4.83182054919638
C           17.93753849529842       23.26273555004681       -3.90784890383460
C           17.92939511386525       24.62138238875579       -3.72282244577323
C           18.79910739425450       25.44488140777616       -4.43988735963602
C           19.68184661601448       24.90985336443803       -5.34587847861747
C           19.70107414195802       23.53425916545313       -5.54318904536949
S           20.69759404451281       22.57410609779093       -6.61151676034042
C           21.47382055437855       17.26739715260854       -8.87018430128562
C           21.78389020561401       15.94623520993794       -9.29347067229027
C           22.28656894780215       15.69686558940503      -10.59398712508416
C           22.59023606680183       14.41585463841989      -10.97685662700851
C           22.40929282545835       13.31869031994709      -10.12892306825487
C           22.77301313340019       12.05690861935804      -10.62767404301395
C           23.11340785338531       10.96554746926641      -11.06260561194214
C           23.51600158619395        9.71561426272160      -11.53607305540400
C           24.60861000551915        9.45416774243373      -12.29511275129518
C           24.77455545651056        8.06231079209233      -12.62493138078907
C           25.80107586374620        7.47764123755831      -13.38551986999696
C           25.79327646603212        6.12212661821566      -13.59232248586478
C           24.78051083286426        5.32419484228194      -13.05712813826673
C           23.77043963916759        5.88178728555890      -12.31197263724818
C           23.76632061066698        7.25447829563704      -12.09412861827397
S           22.63216326123306        8.23869823453016      -11.19887115234690
C           21.89119256211089       13.52469982245893       -8.84825568415812
C           21.58566816231016       14.84674110585289       -8.42359606252740
C           21.63296693840677       12.40474014794940       -7.92803735129779
O           21.81150615134586       11.24064854863843       -8.24056582253100
C           22.46993279814066       16.79662035732250      -11.54045485151496
O           22.89243980147289       16.59626540864853      -12.66632784532961
N           22.13980041377796       18.08210060294694      -11.10029713721861
C           22.25972670305084       19.17494131474692      -12.04737171700459
C           23.69711874827443       19.40439832057178      -12.47987393047968
C           23.83306914729467       20.51652056005745      -13.51687795918968
C           25.25229143916345       20.66124495289622      -14.06337960744743
C           25.36145629732399       21.74498929705267      -15.13523739749069
C           26.74340900239544       21.81901878066988      -15.78364104324816
C           26.81740001663099       22.87080471136836      -16.89045616214941
C           28.15578408412522       22.88169058626335      -17.62863000965794
C           28.19396102166260       23.90701579521333      -18.76178708872292
C           29.49051934535757       23.86931380113955      -19.57023213467873
C           29.49500782991670       24.87304968163699      -20.72310579192104
C           30.75833429805599       24.80449040292707      -21.58062820752668
C           30.73829795980181       25.79877248332544      -22.74151704367223
C           31.98030599144171       25.71722517491677      -23.62853833698693
C           31.94681273959691       26.71435934973111      -24.78673874922747
C           33.18079224353720       26.63622196474489      -25.68516923262706
C           33.14243029884536       27.64233336361409      -26.83544359777517
C           34.37487297543288       27.57153929117877      -27.73673249502241
C           34.33846219615041       28.58768668232949      -28.87928644437435
C           35.56636405758664       28.51449686010677      -29.77286896643308
C           21.67867340327747       18.38175032988405       -9.81015761142246
O           21.45785532326124       19.54184832019892       -9.51004994239650
H            0.19474277832255       -1.29034182720058        0.66092251298768
H            0.40623095871945       -0.81295379963695       -1.02103569253053
H            0.10428178932879        0.40811755714935        0.20454225446338
H            2.63211409160858       -1.33655088801682        0.05979030790694
H            2.33207770866806       -0.12542601106139        1.27502489342049
H            2.24734056652914        1.64810177401981       -0.51691991444643
H            2.55388969230030        0.43733372187375       -1.72904076083839
H            4.75776449925794       -0.10867669875204       -0.62796525825233
H            4.44921211251726        1.09771286424561        0.58848376679966
H            4.36254087278455        2.87668441722960       -1.20192567597192
H            4.68345413660302        1.66979046436914       -2.41438425092505
H            6.88690777782161        1.13991907645612       -1.30710805830223
H            6.56294936994948        2.33784948851034       -0.08622541173282
H            6.46803355574905        4.12446737602933       -1.86856062671055
H            6.80593197353427        2.92639941320160       -3.08506547144240
H            9.00932950352884        2.41252983537490       -1.97083482612923
H            8.66828349688747        3.60046618213199       -0.74474654699439
H            8.56336733598703        5.39600559195451       -2.51646942985860
H            8.91549349637907        4.20852451459055       -3.73911810970111
H           11.12150680920016        3.70949473991000       -2.62244282658851
H           10.76678259981938        4.88889127736941       -1.39172038156939
H           10.64556242650493        6.69056531998330       -3.15501077968738
H           11.00754949147355        5.51228024459969       -4.38339056901337
H           13.22128033491910        5.03190158481226       -3.27452264794364
H           12.85721742583081        6.20196826043261       -2.03741115851907
H           12.70833874365776        8.00944664618836       -3.79191852153946
H           13.07691005037631        6.84089848014478       -5.02736598530348
H           15.30377889261241        6.38336641069891       -3.93311755432579
H           14.93327509219504        7.54717300296761       -2.69176951855374
H           14.74447420873109        9.35358322636020       -4.44455585022476
H           15.12244444798402        8.19128693317933       -5.68297941536395
H           17.36533303621652        7.77095493073334       -4.60863041581323
H           16.98485294706639        8.92533695476805       -3.36085979573501
H           16.74497620489248       10.73066787905868       -5.10825174758435
H           17.13630800156481        9.57876389715688       -6.35197472409532
H           19.39795662318755        9.20676570440197       -5.30254738051091
H           19.00286786325993       10.34716812056837       -4.04493949104146
H           18.70260811971729       12.15488358411423       -5.78448566599619
H           19.11783345585046       11.01732354366341       -7.03603151825038
H           21.40386040268535       10.73815783991080       -6.04116143197775
H           20.97777399943094       11.87349593460665       -4.75883647037944
H           20.37956328893278       16.53373705742112       -5.75308186302848
H           18.40577124571824       20.52758231267603       -4.71679345878606
H           17.27023504390659       22.62160392164578       -3.35906059008383
H           17.24451268895392       25.06022912928139       -3.01593659475168
H           18.77667449464242       26.51033476120266       -4.27998028126084
H           20.35694612075341       25.53467021324802       -5.90451555437454
H           22.97524339964038       14.25719097568717      -11.96897767830837
H           25.29698528753479       10.21817763572712      -12.61697987278346
H           26.57856070557320        8.09881477897039      -13.79445255053602
H           26.57764403617446        5.66576951049642      -14.17360169914733
H           24.79332530662180        4.26068000742850      -13.23053967488104
H           22.98501850653293        5.27666471835970      -11.89335143595576
H           21.84174206390828       20.07680703792989      -11.58712903533030
H           21.62938276231333       18.93835784036128      -12.91054193075234
H           24.09477349267056       18.46600428402507      -12.88525698465204
H           24.31480351744118       19.62352538596306      -11.60123093088270
H           23.49994460824288       21.46835371461150      -13.08590320045215
H           23.14327587008948       20.32278710337092      -14.34738229297470
H           25.58225794016324       19.70109096781733      -14.47833198527605
H           25.94930842546188       20.87341786392835      -13.24381153938617
H           25.09922258174135       22.71953601237594      -14.70571843854998
H           24.60710359111058       21.56480583483142      -15.91103475855122
H           27.00740050719609       20.83652416772357      -16.19384196936065
H           27.50444368888815       22.02399761797289      -15.02092628690110
H           26.61616985525049       23.86422721259603      -16.47159082059231
H           26.00825491661320       22.69754712344999      -17.61048804306645
H           28.35955647954135       21.88218538585967      -18.03175604284931
H           28.97108736354237       23.07611034437775      -16.92136111827127
H           28.04007211251557       24.91381764633899      -18.35481810180520
H           27.34267761597964       23.73938204595851      -19.43294321049286
H           29.64835213617284       22.85770844142498      -19.96364639389910
H           30.34640848667032       24.05601539164569      -18.91038085120521
H           29.37100172784590       25.88880733846245      -20.32823037830373
H           28.61516627376640       24.70567563564904      -21.35645169055813
H           30.88410269606962       23.78679783858097      -21.96989016706274
H           31.64144771027891       24.98206760467834      -20.95496736192359
H           30.63082764475530       26.81805666264988      -22.35090318699631
H           29.84171290823398       25.63242957144776      -23.35113813214021
H           32.08670740068339       24.69878221931597      -24.02157839995209
H           32.87898287433408       25.88445764485999      -23.02247489854803
H           31.84345610710769       27.73245547385017      -24.39194538248977
H           31.04402162473484       26.54970109995983      -25.38754768201038
H           33.28155949249305       25.62044499944635      -26.08635960216227
H           34.08462732505299       26.79663427762177      -25.08497481687411
H           33.03951880149556       28.65721091926303      -26.43245196387584
H           32.23814747273273       27.48165678854733      -27.43498356929417
H           34.47407288489966       26.55907505335609      -28.14675748076148
H           35.27968209917584       27.72526389003750      -27.13611582064142
H           34.23459155403488       29.59826969983462      -28.46203520981195
H           33.42836888150520       28.43195306235724      -29.47391769153051
H           36.47982896057078       28.70143317677455      -29.20481102313427
H           35.52837746702022       29.24552252800200      -30.58373605781691
H           35.66622780423593       27.52647209600157      -30.22663810603555
