170
 energy: -29.503784629390 gnorm: 0.000697590858 xtb: 6.5.0 (97a52f5)
C            0.58084738200107       -0.20587062631971        0.29299156500572
C            2.09596862633839       -0.11108378360498        0.37708385463173
C            2.69939586884219        0.73601795425229       -0.74402926523285
C            4.22258579636654        0.83734709543632       -0.66498943955969
C            4.82339713251499        1.68737706859134       -1.78420505088787
C            6.34647776441362        1.79047723861709       -1.70595629426132
C            6.94442632861020        2.64486753930795       -2.82331053413030
C            8.46765525586692        2.74948133440933       -2.74897413649045
C            9.05982980336615        3.60848427382972       -3.86579067812106
C           10.58301231724978        3.71826645321083       -3.79766288284809
C           11.16498786371221        4.58281163280233       -4.91550269071891
C           12.68753676271561        4.70553825858874       -4.85473656197821
C           13.25350468888606        5.57831438311545       -5.97441534309755
C           14.77451161252919        5.72312686267820       -5.92249471014653
C           15.31746590244863        6.60769873059962       -7.04425634813148
C           16.83544687034083        6.78233663490971       -7.00398172774912
C           17.34813862388807        7.68055029228368       -8.12853084127171
C           18.86135670105918        7.89078121352901       -8.10450307936429
C           19.33449039334652        8.80278957291370       -9.23318198704005
C           20.83081006575775        9.05753266301793       -9.23625220272402
N           21.19031136228709        9.93859110562078      -10.32945843459119
C           21.01327211172368       11.31013325555921      -10.12780562819008
O           20.66275703948522       11.75172308593319       -9.04683211766618
C           21.24083019344584       12.18967467613188      -11.27316060915792
C           21.09460587511642       13.54429838367733      -11.12447466890962
C           21.26791570524050       14.43453568823826      -12.18779333670998
C           21.08513439891010       15.80352176270067      -11.92865147027156
C           20.94898221676004       17.01467912001849      -11.84963412585381
C           20.84851478687108       18.41004091392283      -12.02144269011549
C           20.50395944899067       19.27664075172073      -10.99134078177632
C           20.42008738326787       20.63404368061445      -11.22120979550430
C           20.67870563222364       21.14177653480432      -12.47907233275506
C           21.02190762746959       20.29124294025259      -13.51070719336907
C           21.10539009264301       18.93501098014132      -13.28241417870911
C           21.59618087972295       13.93986482085552      -13.45233143088669
C           21.75158771413118       12.53707637616768      -13.62834521390229
C           22.06675444688813       11.99481130557393      -14.89803062791412
C           22.22862148324744       10.64156390298527      -15.04382395461602
C           22.07830915139267        9.75294333844994      -13.97580973948204
C           22.27651028034417        8.38546345760556      -14.23080045777023
C           22.43066463214241        7.17648304075111      -14.30982584571345
C           22.55312945506299        5.78224689239959      -14.14389383565046
C           22.94444375840613        4.93006584230267      -15.16944580160113
C           23.05104791673729        3.57314516347449      -14.94613534364682
C           22.76931407686124        3.05124854243759      -13.69900026128842
C           22.37993139864669        3.88732407355988      -12.67184636671879
C           22.27316175887382        5.24308732274972      -12.89375342543946
C           21.73887297288203       10.24629016517106      -12.71390009169665
C           21.58189416459479       11.64925127172309      -12.53729543236296
C           21.51682249778223        9.35202130396628      -11.56118820950262
O           21.58368186502090        8.13700525220685      -11.63668130013896
C           22.20237638753001       12.86549492028142      -16.06498394603085
O           22.44234126684928       12.40468135861082      -17.16792954543671
N           22.04420297433956       14.23999574482900      -15.86125060419335
C           22.11661222331260       15.10906012709842      -17.02251667273071
C           23.46803361317819       15.04429942617401      -17.71309497324577
C           23.52911661487324       15.89605176601439      -18.97932046099199
C           24.80833900520613       15.68172771106969      -19.78636939852313
C           24.82928221981584       16.48697169759909      -21.08537770020082
C           26.02555215002521       16.15902321242041      -21.97803148287746
C           26.00794015394715       16.93012384364886      -23.29788592446455
C           27.12737963234182       16.51567004642595      -24.25252953404390
C           27.07891010357019       17.26612804088047      -25.58331172956130
C           28.13492552901547       16.79171579949939      -26.58112705405832
C           28.06109660604267       17.53016031856583      -27.91734927046147
C           29.07007558282472       17.01841868024432      -28.94491152431049
C           28.97390559947952       17.74860090435692      -30.28419769614448
C           29.95005037753374       17.21515130670809      -31.33225013841698
C           29.83733264581845       17.94162198388794      -32.67229130631123
C           30.79415627244634       17.39828281110168      -33.73294161136929
C           30.67550592048949       18.12768823160338      -35.07091808646810
C           31.62553290600383       17.58294609649472      -36.13701897669667
C           31.50988996595438       18.31774759887148      -37.47314400031162
C           32.45684891490718       17.77191590543232      -38.52973517972366
C           21.77280238724018       14.82948759282367      -14.61674766088722
O           21.68526880608530       16.04333572862824      -14.54454614442524
H            0.16181461446402       -0.81275358048381        1.09870171398805
H            0.26497723074906       -0.65181579846659       -0.65188747363949
H            0.11960286824811        0.78165723725217        0.35221569506382
H            2.53964962487458       -1.11517663480316        0.35160266300130
H            2.39523197845389        0.30616178240133        1.34768163937230
H            2.26195086430057        1.74152599284024       -0.72155996965701
H            2.40793136871840        0.32114067689393       -1.71656495161597
H            4.66066364631137       -0.16779744581025       -0.69011668050661
H            4.51425080921898        1.25060719617673        0.30814798558131
H            4.38472212115990        2.69227937338415       -1.75901247757433
H            4.53179959471486        1.27423980548880       -2.75742974005856
H            6.78587230978948        0.78601013023792       -1.73462573467871
H            6.63839762238629        2.20119329927982       -0.73182550071749
H            6.50484046295838        3.64926965395995       -2.79358984199832
H            6.65078653334757        2.23498455419160       -3.79730793741858
H            8.90843497334315        1.74579377881690       -2.78242097370832
H            8.76206282631768        3.15760754634211       -1.77452131776229
H            8.61727431840113        4.61145557235627       -3.83171551985530
H            8.76373585235182        3.20055121795848       -4.83987817194583
H           11.02773693080285        2.71650398880555       -3.83587475357219
H           10.88034970934748        4.12532058658422       -2.82365585102380
H           10.71470708505963        5.58224226892422       -4.87831662705524
H           10.86781394793593        4.17398683149558       -5.88890220696874
H           13.14138588643395        3.70809830595042       -4.89773676836060
H           12.98646634405902        5.11359035304904       -3.88166062737725
H           12.78972499484523        6.57146460635861       -5.93419258492426
H           12.95677319256118        5.16646783248669       -6.94670307290005
H           15.24332681663875        4.73298593968264       -5.97126946519997
H           15.07363423859638        6.13371014009761       -4.95061911315133
H           14.83533910388212        7.59197687464749       -6.99930645464168
H           15.02161572348249        6.19204466971413       -8.01529365096805
H           17.32407804233382        5.80211706690464       -7.05957584866540
H           17.13463249377802        7.19712821539074       -6.03384809626628
H           16.84455470598721        8.65359408980676       -8.07677640852648
H           17.05226154361540        7.26025655605847       -9.09745623310213
H           19.37362773853187        6.92341793823613       -8.16930775612955
H           19.16228695377435        8.31253548010762       -7.13806518343651
H           18.81438329790532        9.76669598046276       -9.17530669239961
H           19.04428293315877        8.37977776095234      -10.20240304384635
H           21.39153625313289        8.12352497592108       -9.34526350741558
H           21.15307469332965        9.52407679477625       -8.29962039966759
H           20.82986070907745       13.92659805019510      -10.15420109907876
H           20.30355721083453       18.87353213454735      -10.01343421953338
H           20.15171395814024       21.29942377242569      -10.41701179236145
H           20.61163878234693       22.20281794773425      -12.65581928386704
H           21.22351422720639       20.68549176786204      -14.49315777818110
H           21.36909862253193       18.24812570012957      -14.07037040965440
H           22.47176404699361       10.25776614655337      -16.01910084848117
H           23.16407647386601        5.34423244951587      -16.13862977291789
H           23.35572134920239        2.91926195776948      -15.74690855468273
H           22.85429144120511        1.99061531797021      -13.52727283554779
H           22.16084944407158        3.48206140472240      -11.69756376226571
H           21.97354054456956        5.91842156130606      -12.10858729954911
H           21.89118831225244       16.13223373027474      -16.70383308425338
H           21.31853572763167       14.81029239511073      -17.70969108545550
H           23.68325927010270       13.99780956350852      -17.96074041442715
H           24.25671517078015       15.34131433053181      -17.01224566734012
H           23.42042361898022       16.95641578296338      -18.72175529377951
H           22.66229175962517       15.66599287724279      -19.61073780681647
H           24.91632021559959       14.61493547767190      -20.01720205023782
H           25.68398115283378       15.93163471108794      -19.17546725147975
H           24.81494598645261       17.55998619963216      -20.85874259758740
H           23.90212535479150       16.30203019733917      -21.64173477948079
H           26.04082536277222       15.08186864741597      -22.18480179883313
H           26.96007549073878       16.35931643737123      -21.44011337898668
H           26.06744251891460       18.00709077449120      -23.09944779842721
H           25.03888989371946       16.78553549717739      -23.79099519456604
H           27.06775779076324       15.43634956255834      -24.43876133767326
H           28.10196648469824       16.66886909844347      -23.77345916450567
H           27.19316666108877       18.34237775417452      -25.40568546933661
H           26.08239296644640       17.15613955341540      -26.02828689880856
H           28.02084429962719       15.71410033340959      -26.75077348407303
H           29.13536150737943       16.90768130421457      -26.14705302409232
H           28.21129928237147       18.60432847156203      -27.75449933915278
H           27.04732581350973       17.44424520571481      -28.32717173289295
H           28.92179745541452       15.94302848455393      -29.10121776417501
H           30.08673775117193       17.11069717141843      -28.54426088447112
H           29.14504086943525       18.82123904198263      -30.13237697085061
H           27.94909627327487       17.67614087677342      -30.66825666605520
H           29.78075030657102       16.14175710693853      -31.48024623774433
H           30.97676151978207       17.29223409771939      -30.95473414109178
H           30.01895676798103       19.01330583617730      -32.52636639995020
H           28.80620793423885       17.87577529816891      -33.04011575312907
H           30.61133498456994       16.32697246166920      -33.87995271559566
H           31.82598235933010       17.46352722245698      -33.36725211992839
H           30.86196215502379       19.19825695429970      -34.92389372507575
H           29.64221637666082       18.06635061581262      -35.43296475258625
H           31.43596302041802       16.51332032892021      -36.28739776877505
H           32.65859823995802       17.64017573288378      -35.77360386629258
H           31.69650086508961       19.38796936607228      -37.31514903171726
H           30.47302787378841       18.26092472087601      -37.82927798887214
H           33.49622852153879       17.85154378484032      -38.20715444453675
H           32.36570375156018       18.30569534824362      -39.47818267475970
H           32.26183333075243       16.71653722371118      -38.72725516911946
