106
 energy: -19.104307406105 gnorm: 0.000742254470 xtb: 6.5.0 (97a52f5)
C            0.59093739686279        0.25679658771701       -0.55846986309611
C            1.97931308704795        0.85699936846430       -0.40326040198567
C            2.69868409953282        0.36746555019874        0.85403108069739
C            4.09592827159892        0.96585363787562        1.01618356487588
C            4.81815449910819        0.46527146393814        2.26652896049269
C            6.21559188097067        1.06260226513043        2.43045777157643
C            6.94155464361795        0.54725327988658        3.67255541395560
C            8.33654873721959        1.14790258807310        3.84537302746040
C            9.06499406916336        0.61239188932309        5.07752155756875
C           10.45339674526469        1.22236881798469        5.26953557576825
C           11.18056960317261        0.66463870326764        6.49269888043664
C           12.56041777395806        1.28496702687021        6.71082240242467
C           13.28056128346533        0.70805738024245        7.92926523048734
C           14.65295336892590        1.33430363783942        8.17446055951894
C           15.36033883077298        0.74470917540389        9.39427785562509
C           16.72567752320305        1.37483458654184        9.66553098850420
C           17.41565382518786        0.78052524500571       10.89168834532948
C           18.76795705633300        1.41284990788490       11.18596545778289
O           19.37306240592043        0.84601926142291       12.34285039137387
C           20.57554673558003        1.44645284409584       12.73540329273705
C           21.15522164136361        1.00374788519070       13.92769165259017
C           22.32891309581506        1.55012173784623       14.39161437191240
C           22.95215916021600        2.54757036984904       13.67918797981695
B           24.31147723192429        3.19145802872546       14.23683421935340
N           25.46201304346638        2.27629940693159       13.91298585778246
C           26.13827709215125        2.41774996856793       12.78276750877812
C           27.11962658158136        1.38947013465934       12.40742011745261
C           27.03917025087481        0.08647716444785       12.89276737198765
C           27.97356266979226       -0.85732012898119       12.52467206655216
C           29.00005071839620       -0.52011339564836       11.66494300901500
C           29.08769245946691        0.76470714044175       11.16784001778555
C           28.15457512159010        1.70955576349616       11.53414765166568
N           25.99172858299937        3.46930428309402       11.95432139592644
C           25.26591737128176        4.52755172182276       12.39891836643486
C           25.23541213765455        5.70074647417791       11.64106536779495
C           24.54317230985545        6.80148710943719       12.09011451457189
C           23.89385097751002        6.76354386833777       13.30227093104888
C           23.91553450315716        5.60190305622695       14.07829803499069
N           24.56233366490277        4.51338993219350       13.56822883633310
N           23.33014693373759        5.61046470962400       15.30499435896154
C           23.57963455440747        4.56664314365055       16.11953117439814
C           23.19694660097577        4.69570370077832       17.53285301552436
C           23.04409901305103        5.95873985065124       18.09607474597522
C           22.68242734390691        6.10361864146116       19.41743044222363
C           22.46195092830954        4.98700811503841       20.19881362176546
C           22.60011152388535        3.72630065800178       19.65286086554299
C           22.96253084946651        3.57911411867703       18.33148130391533
N           24.16667462726239        3.44977792882916       15.71399987576836
C           22.40698091994750        2.99105166828088       12.49691729549172
C           21.23280424663621        2.45375287155306       12.02329860841575
H            0.08785814207549        0.61238087123743       -1.46037936338232
H           -0.04522871967910        0.50765923420917        0.29221898228658
H            0.63578442818778       -0.83222826450949       -0.61548507090415
H            1.91732103641667        1.95301475873630       -0.38195741648707
H            2.59206115023197        0.62517306369578       -1.28443649306124
H            2.76693122404503       -0.72697687999782        0.83610692155127
H            2.09342854724663        0.59970879483861        1.73867135594508
H            4.02773918440671        2.06011239515919        1.04282249269367
H            4.69865441392770        0.73992051150431        0.12819849203230
H            4.88677700711355       -0.62896001107430        2.23830486127036
H            4.21517009379096        0.68932831560253        3.15484963152168
H            6.14674126882428        2.15644148376828        2.47039421074424
H            6.81542347581199        0.84755526782474        1.53778983508327
H            7.01487943251574       -0.54615309494420        3.62808048782661
H            6.33815725273953        0.75534650750629        4.56448963221092
H            8.26269502312818        2.24047194834054        3.90586055859099
H            8.93652605589116        0.95213675237533        2.94839954375850
H            9.14929718123239       -0.47899080831620        5.00881955382540
H            8.45687817491643        0.79424736783795        5.97198933496959
H           10.36871733170412        2.31245847501418        5.35522091408747
H           11.05907129878720        1.05320785960175        4.37101788103221
H           11.27773364481853       -0.42376800596085        6.39765326566358
H           10.56436308260032        0.81718039402593        7.38719068652634
H           12.46341892858622        2.37208097521061        6.81917131906740
H           13.17658787881182        1.14145609490527        5.81492504639425
H           13.38741822699476       -0.37738209028209        7.81300858955445
H           12.65438013094517        0.83738106536296        8.82049920628052
H           14.54683616424939        2.41897814798985        8.29753967574549
H           15.28201087985219        1.20821052941038        7.28495500002893
H           15.47458579330877       -0.33848972178467        9.26523142407754
H           14.72199367903800        0.85913977290850       10.27886760490631
H           16.61307259957477        2.45812293425671        9.79475786417312
H           17.36958827457768        1.25758169605160        8.78550715274809
H           17.54396866876039       -0.30037838859438       10.76396225363246
H           16.77184845802309        0.88800622984900       11.77217489989972
H           18.65619698901742        2.48976406899148       11.35270393856140
H           19.44977649697622        1.27280547960403       10.34022132573034
H           20.65497289697533        0.22793577521849       14.47964154872311
H           22.76534005579357        1.21138498305446       15.31491421453534
H           25.63994080792241        1.52215715398660       14.56253171526387
H           26.22656422238271       -0.18885057712290       13.54143627380447
H           27.90088102034485       -1.86288652919771       12.90597820064780
H           29.72952446659156       -1.26024642810904       11.37881981500085
H           29.88488387042442        1.02885005760480       10.49233715298321
H           28.21178843068596        2.71314902278065       11.14955392588273
H           25.76938049943563        5.72583650749562       10.70758451339460
H           24.52449292253954        7.70226276486592       11.49865125176047
H           23.37341216873050        7.62638390032749       13.67876272240974
H           23.21328804618627        6.82238343036881       17.47647069487354
H           22.57001343980325        7.08857625330026       19.84043584816981
H           22.17800438936377        5.09911284107095       21.23257530343759
H           22.41965045774070        2.85489452046600       20.26113018543337
H           23.04272031579064        2.59549984193301       17.90370478702387
H           24.44478233187700        2.71664512433856       16.35222259090116
H           22.91244313486164        3.76873741791453       11.95323444323011
H           20.82283563052021        2.81241106511727       11.09698454285135
