51
 energy: -10.892075585777 gnorm: 0.000398155511 xtb: 6.5.0 (97a52f5)
C            0.97296534361766       -0.38865636266931        0.08878207523856
C            0.10419880437578       -1.29171721178745        0.56776328931340
C           -1.33478254538959       -1.27119986902695        0.33484782988657
C           -2.17453680659204       -2.06752414227412        1.11485929807123
C           -3.53734570805123       -2.06406847957774        0.91247820177240
C           -4.09116236638433       -1.27466151436233       -0.07070488896360
C           -3.28626403407830       -0.46881596892337       -0.87878286963550
C           -3.89960047727029        0.35052802276798       -1.90888775453271
C           -3.24617656190468        1.17104504547669       -2.75439872436113
C           -3.89351914998914        1.99099156772176       -3.77571861524093
C           -3.34160443387103        2.04704202297519       -5.08550106547714
C           -2.16436322168491        1.33860650174926       -5.43886891272138
C           -1.65684078362493        1.39470597864914       -6.69971967024974
C           -2.29353919966140        2.15450802552893       -7.69289263827459
C           -3.43094676074298        2.83867576112087       -7.40718125720820
C           -3.99305127635354        2.80469227359581       -6.10311224061716
C           -5.17048115189841        3.48630325137856       -5.80880508454617
C           -5.71910342513061        3.46953933903055       -4.52943518193299
C           -6.90705162597242        4.19000020113812       -4.23282138090507
C           -7.41052123490586        4.21490423172015       -2.97222114705599
C           -6.75396375424263        3.53375102130500       -1.93624573087240
C           -5.62141931345279        2.82294220300771       -2.18487149432302
C           -5.07216755668442        2.73626620401496       -3.49018001312745
C           -1.91003177750381       -0.48290578727845       -0.65848846838687
C            2.41031538059968       -0.40806624812448        0.30827890743940
C            3.07883329819968       -1.45962388424520        0.92237116788966
C            4.44113495337205       -1.39643805877665        1.08038069622205
N            5.20072668395033       -0.38706632852719        0.68702093638567
C            4.55981364416468        0.61154077552868        0.10207465545276
C            3.20434367064325        0.65240409891485       -0.10904043366413
H            0.59409663297991        0.43490524039022       -0.48835340759296
H            0.47503736839894       -2.08671066535543        1.18839947989786
H           -1.74467923233346       -2.68449443372814        1.88535363197739
H           -4.17277084270016       -2.68087247709885        1.52689853802596
H           -5.15665796618130       -1.27342928196303       -0.22507431854947
H           -4.96650800917262        0.26497861679694       -2.01663305831412
H           -2.17255918560419        1.20821498784234       -2.70532007214909
H           -1.67155748362909        0.73575086456060       -4.69729889426151
H           -0.76006619928310        0.84881830208981       -6.94355318511217
H           -1.87828983707861        2.18734780016998       -8.68689537516709
H           -3.92490331399765        3.41501180819430       -8.17043203045056
H           -5.66069170816109        4.04739633668438       -6.58372184933132
H           -7.40130903649283        4.72452657947093       -5.02573336672023
H           -8.31052968184957        4.76843416617933       -2.75982853009782
H           -7.15054100145990        3.58215011544075       -0.93521009838971
H           -5.11207237432869        2.34205668571553       -1.36956129502041
H           -1.27344023024979        0.11616179984968       -1.27969980840106
H            2.53624741458958       -2.32340471511260        1.26282348700290
H            4.95451170404592       -2.21871933633608        1.55541521703440
H            5.16866764683346        1.44116831306175       -0.22391201062617
H            2.75006672216017        1.50007662311852       -0.59291253935280
