50
 energy: -7.229275472105 gnorm: 0.000248961247 xtb: 6.5.0 (97a52f5)
C            0.87201202626423        0.15246467383166       -0.16056540795934
C            2.39201789352711        0.12833125740406       -0.13180635477906
C            2.94830975159536       -0.78730258631996        0.95931987051173
C            4.47599352260528       -0.81654653122667        0.99416938416098
C            5.03026748495930       -1.73195502126712        2.08502699183332
C            6.55766043009520       -1.76118697124368        2.11986259097315
C            7.11151060209679       -2.67662252680679        3.21075220068871
C            8.63883165951856       -2.70601132782275        3.24577460852693
C            9.19231080241251       -3.62156733705687        4.33680733633382
C           10.71959726080206       -3.65102993384470        4.37191747765871
C           11.27331206930997       -4.56648779032413        5.46283338316186
C           12.80055653664063       -4.59552684693722        5.49743918970762
C           13.35552502671130       -5.51064712190777        6.58795310483909
C           14.88272193533787       -5.53877142161453        6.62146846569106
C           15.43915422263738       -6.45447592062726        7.71267869952117
C           16.95239950368287       -6.48475986427430        7.74876755579194
Cl          17.51909723166932       -7.55428599925466        9.02328121320984
H            0.48583330671471        0.80944629931579       -0.94346532455998
H            0.46462151223551        0.50079709079466        0.79063999967673
H            0.46462163532038       -0.84476360805550       -0.33850653521750
H            2.78422486683022        1.14403902530138        0.01277866615779
H            2.78422499762763       -0.19035918573933       -1.10700040799404
H            2.56358901161005       -1.80494458036751        0.81802399290454
H            2.56358851595316       -0.47151591635515        1.93698958949080
H            4.86123795849275        0.20080088678826        1.13602392873898
H            4.86123844937378       -1.13283215421496        0.01688667801468
H            4.64535425256141       -2.74946713615213        1.94335441531355
H            4.64535349392959       -1.41582018611535        3.06250342980515
H            6.94284923274712       -0.74380891330129        2.26170809398584
H            6.94284998219517       -2.07746867470415        1.14254812585223
H            6.72641603980150       -3.69403993302905        3.06895879215833
H            6.72641537519348       -2.36038524954742        4.18811449303608
H            9.02406305022781       -1.68866723384982        3.38764224833114
H            9.02406374096566       -3.02230862739888        2.26849735200935
H            8.80707935447511       -4.63890053702481        4.19491162885964
H            8.80707885202899       -3.30524409403330        5.31406908511216
H           11.10479576685017       -2.63362895170738        4.51374590782267
H           11.10479627961543       -3.96729878262464        3.39457734450400
H           10.88818209430921       -5.58388609618604        5.32098354042511
H           10.88818134296030       -4.25019847437941        6.44016711114744
H           13.18533420194114       -3.57797083280373        5.63905803761293
H           13.18533491195137       -4.91161636997524        4.51991006779267
H           12.97094682535921       -6.52824747682483        6.44638384077958
H           12.97094630635557       -5.19459861664320        7.56553447748079
H           15.26728563169041       -4.52128628001621        6.76325634191395
H           15.26728615253407       -5.85501527963555        5.64403853802382
H           15.05821080027194       -7.47418909224942        7.57400258311284
H           15.05821032399606       -6.14090982224184        8.69284295466888
H           17.36199365868612       -5.48736308278952        7.92559731105477
H           17.36199411532922       -6.83202684494176        6.79720338211362
