39
 energy: -5.663408650841 gnorm: 0.000388592704 xtb: 6.5.0 (97a52f5)
C            0.87405633413158       -0.00412424272416       -0.18413463612544
C            2.39433518641306        0.01055410182935       -0.15313822570236
C            2.95345700339771        0.64527510391587        1.12100235617992
C            4.48157183383121        0.66555258141513        1.15975016333641
C            5.03723106159146        1.30173012793383        2.43386825861924
C            6.56510767701386        1.32292962062946        2.47468871679092
C            7.11897268259052        1.95851648417430        3.74980857339014
C            8.64675970041351        1.97833301562442        3.79288335022705
C            9.19972731870581        2.61513313919339        5.06762108481195
C           10.72723503734782        2.63610343888352        5.11044731691695
C           11.27960635217940        3.28275020472862        6.37962172951294
C           12.80286245469614        3.30590698659118        6.41828399134868
O           13.32211517417460        3.88511533556184        7.59816873092447
H            0.48597770614170       -0.45862835257973       -1.09875291666818
H            0.46789833605997        1.00747567173080       -0.12263104538057
H            0.46707411064744       -0.56535457693853        0.65934838180641
H            2.78515486785149        0.54764498969875       -1.02785817985889
H            2.78445471441140       -1.01148786757131       -0.25099840183953
H            2.56980789460876        0.10955181198245        1.99810372291976
H            2.56892692182022        1.66771790492124        1.22215872406534
H            4.86560036269695        1.20097196102298        0.28270717741658
H            4.86659082353622       -0.35677658393942        1.05998275148816
H            4.65269969378258        0.76630483004552        3.31079527720575
H            4.65179425344591        2.32401211313691        2.53349762622356
H            6.94989538369825        1.85901946031311        1.59838023539460
H            6.95068842767720        0.30083253701506        2.37480950473807
H            6.73270909430910        1.42335296465428        4.62604764254754
H            6.73428635668665        2.98106653850932        3.84888152940558
H            9.03313846058551        2.51302886373271        2.91642505714412
H            9.03167261967647        0.95582578415139        3.69475638901514
H            8.81378792812504        2.08063796672115        5.94438084792782
H            8.81450893960782        3.63756119635621        5.16547398826972
H           11.11314774997771        3.16480673267790        4.23016679367190
H           11.11297310860607        1.61321946305917        5.01980990032391
H           10.90413859164445        2.75420966551491        7.26329087366429
H           10.89591840832798        4.30519203607271        6.47311495519102
H           13.20933018971565        3.84397884618721        5.55269584920810
H           13.20340859575752        2.28713473157287        6.35792816849882
H           12.95436864411533        4.79085541419555        7.72052373739006
