152
 energy: -26.666061133097 gnorm: 0.000656104047 xtb: 6.5.0 (97a52f5)
C            0.79299136202744        0.46713654227437       -0.50629324821568
C            2.31016960493712        0.44642167119667       -0.60098044877090
C            2.85919736109029        1.51027908345193       -1.55262944370789
C            4.38445846770849        1.49541289811504       -1.64993628143594
C            4.93515730391371        2.56383785017058       -2.59423579887016
C            6.46070649279396        2.54903097664702       -2.68437854085661
C            7.01775834087733        3.62475385649137       -3.61632069679763
C            8.54391897443610        3.61051562129431       -3.69390195136054
C            9.10957562997928        4.69401327462577       -4.61117490516059
C           10.63617745938084        4.68009684059957       -4.67382947286192
C           11.20986196798115        5.77123137963183       -5.57485350631565
C           12.73061976728525        5.76170891893748       -5.61921521451190
O           13.24376315929096        6.79947568338793       -6.44593183252815
C           14.63653212732313        6.89801913615179       -6.46954409104651
C           15.19571571607747        7.95563570825323       -7.19599733141686
C           16.55185999177197        8.13658481385406       -7.25908306588240
C           17.42868126101014        7.26814031132159       -6.59389217765943
C           18.88441086696810        7.46423796785250       -6.63635223627438
C           19.44967059693636        8.76685497200057       -6.65242413064800
C           20.79919121404995        8.98283123458270       -7.20837339132240
C           21.69374375733858        9.87460086630968       -6.60403905799057
C           22.95374879511066       10.07047895771251       -7.11979832400572
C           23.35525865655137        9.38537182895483       -8.25062234208800
C           22.48889860998444        8.50230772600778       -8.86612577222980
C           21.22739857770664        8.30350398005763       -8.35562712032408
C           18.72247881475825        9.92316942542863       -6.13214091593420
C           18.95615479603487       11.21043508960855       -6.64791055395110
C           18.28411460044330       12.30015613368585       -6.17012692292602
C           17.33248695236789       12.17531428438584       -5.14032735963442
C           16.63901337443288       13.33357686354347       -4.68297612023424
C           15.70811020936493       13.36330192587530       -3.67690021064165
C           14.99161555290902       14.49912058859574       -3.26050673337736
S           14.31321609130111       14.59342982390775       -1.64802583138312
C           13.73650093736310       16.23075408475434       -1.89868142701883
C           13.07864404413797       17.07062968605780       -1.01514109785097
C           12.70522891875874       18.32890273174592       -1.43394108473706
C           12.98479385207457       18.75327250199975       -2.72848522354048
C           13.63839465301153       17.92725606954140       -3.61300242408409
C           14.02300707838341       16.64828399425901       -3.19953610375798
N           14.69237771758358       15.64735573717434       -3.95281835598285
C           14.71147409802050       15.76571600962433       -5.42671854949143
C           13.32658997891278       15.58663803249675       -6.02896756369439
C           13.32749166461436       15.70687595068433       -7.55178569106192
C           11.96078816520422       15.52040941009033       -8.17316614870898
S           12.08330974311588       15.66972961337072      -10.00540219031327
O           12.58035074292885       17.06757640856675      -10.13146801069992
O           13.06124746825999       14.58790447621639      -10.30662483396849
O           10.67403409405962       15.42179238335773      -10.40201073266039
C           17.10196192346065       10.88898059539296       -4.61609794978869
C           17.78048826794009        9.80232797113930       -5.09389706080543
C           19.74553086342657        6.27457204121995       -6.68585001550545
C           21.00089070843742        6.25436262277514       -6.06269762631376
C           21.80692569443364        5.14966123684409       -6.13165960693430
C           21.40829854988863        4.00105757984946       -6.82458851129354
O           22.30353707414821        2.92948840435199       -6.85726315654531
C           21.91491428868227        1.84403808869171       -7.69195442899134
C           23.00743915238420        0.78900427824653       -7.78151650047044
C           22.64266904141212       -0.38396636777616       -8.68876791612597
C           23.76162729717164       -1.41948812767275       -8.79067404309120
C           23.41518216285639       -2.59689403417144       -9.70106668424028
C           24.54919994499298       -3.61625725254322       -9.80500020897426
C           24.21448539780560       -4.80119359232045      -10.71010284487029
C           25.35802709720670       -5.81033843151421      -10.81226544509172
C           25.02855377898563       -7.00336846171605      -11.70875706022475
C           26.17699352921070       -8.00724552821143      -11.80961820558223
C           25.84940840784497       -9.20672299301533      -12.69961348452802
C           26.99690072161136      -10.19957240083922      -12.79464300178575
C           20.14758832584232        4.01052860717636       -7.43314730462479
C           19.33948219511290        5.11566247439494       -7.36247576369491
C           16.86756425465473        6.19823088618893       -5.88297163865001
C           15.51041685372421        6.01871356591117       -5.81885452424321
H            0.41380538871792       -0.29529566248478        0.17768064685735
H            0.33422562718087        0.29112785111368       -1.48086663647149
H            0.43289804867322        1.43446534829726       -0.15151459914996
H            2.65512432343001       -0.54381317782918       -0.92654782724599
H            2.75269860096280        0.58742675194123        0.39394563963435
H            2.52059584918595        2.50233890701751       -1.23024915895189
H            2.42494494373042        1.37190565285583       -2.55014332078174
H            4.72320411182362        0.50494548937804       -1.97696109448675
H            4.81793229069632        1.62880149627889       -0.65140095627181
H            4.59518251243290        3.55418047783296       -2.26799233438104
H            4.50501618343503        2.43016186384338       -3.59417467103948
H            6.80045831217021        1.56096596565123       -3.01767919852329
H            6.88893132172556        2.67375146900280       -1.68242634769161
H            6.67508522949023        4.61245156173464       -3.28501819919000
H            6.59552865868946        3.49871672170316       -4.62057127530907
H            8.88629224641242        2.62534656299178       -4.03291778965083
H            8.96350878361909        3.72632610867546       -2.68727084170090
H            8.76391449977813        5.67884075621059       -4.27465935127520
H            8.69716899750513        4.57670424514505       -5.62047348366386
H           10.98223462372920        3.69822337937857       -5.01855404023036
H           11.04597101688930        4.78720202224530       -3.66221880431036
H           10.86699729939162        6.75596158110588       -5.23790659180842
H           10.81799309116368        5.66590762812473       -6.59269917248723
H           13.09641512683620        4.80460890806474       -6.00674842424863
H           13.14044203905853        5.89521752434008       -4.61200833589544
H           14.52816134010229        8.63050655851333       -7.70182001443062
H           16.96052526258728        8.95575646003763       -7.82478811573669
H           21.38667538539159       10.39733336843623       -5.71460853255757
H           23.63029130620782       10.75842644118065       -6.63979023968706
H           24.34326826645818        9.53986027655792       -8.65241385741332
H           22.80242616894813        7.96783390324464       -9.74780052326761
H           20.55057809064371        7.61993770070169       -8.83831627003950
H           19.66403618885516       11.32660787648563       -7.45014573934916
H           18.47279832050431       13.27370051720221       -6.58883476329153
H           16.93422967566039       14.26734605207798       -5.12492404773957
H           15.56162123751355       12.47219456440797       -3.09213500519687
H           12.86727851967838       16.72902568396587       -0.01666662381757
H           12.19389216129332       18.98971266451339       -0.75348496020746
H           12.68691235613234       19.74062336180801       -3.04134239083764
H           13.86194155509189       18.25863226017163       -4.61087452877037
H           15.38331791549633       15.02420967105293       -5.85640239430800
H           15.13155548231583       16.73933976170899       -5.69333544937692
H           12.63517630043184       16.31951987718671       -5.59826009336239
H           12.92508353511184       14.61042119598744       -5.73255809863292
H           14.02354019274437       14.97355610439811       -7.98097190424401
H           13.73112543613791       16.68468837569671       -7.84693679427248
H           11.25442930798136       16.26850649026107       -7.81310283143547
H           11.54549385415819       14.54101325282340       -7.93559328487301
H           16.37806033276868       10.75622160449187       -3.83265710247227
H           17.59913658313122        8.83020493888798       -4.67008289771313
H           21.32797306864332        7.12573473323868       -5.52283760386181
H           22.77239376212312        5.14527681542903       -5.65781371109031
H           21.68829075740447        2.24226897333854       -8.68704212355829
H           20.99417203054353        1.41206236491867       -7.28514415864209
H           23.24146497527392        0.42676938862999       -6.77416236863547
H           23.93091558481273        1.26144069219390       -8.13490110811546
H           22.39223231338320       -0.01194710328585       -9.68951732666321
H           21.72603989245077       -0.86285344638450       -8.32409588092355
H           24.01162082030538       -1.79013250576032       -7.78925440967264
H           24.67730581927153       -0.93500998347245       -9.15068530162964
H           23.15840002603791       -2.22733220198593      -10.70112510475527
H           22.50613220106580       -3.09058409268676       -9.33708168792009
H           24.80855851176544       -3.98061983509271       -8.80360609785712
H           25.45647100585052       -3.11999319588146      -10.17028931953034
H           23.95179923885625       -4.43851383713243      -11.71118049190695
H           23.31120531042258       -5.30274659918900      -10.34238539002699
H           25.62477304217430       -6.16640092813509       -9.80981806743395
H           26.25927986209111       -5.30829701225379      -11.18449957507854
H           24.75992853392370       -6.64835965654318      -12.71096801404422
H           24.12954810107061       -7.50790962291138      -11.33475727186124
H           26.44894550608441       -8.35710792028796      -10.80642080971243
H           27.07459480957527       -7.50289108416729      -12.18744064519241
H           25.57374251099999       -8.85060811782993      -13.70092551000005
H           24.94864784011129       -9.70541754247417      -12.31825317290872
H           27.89204234958602       -9.73008371468384      -13.20639703369359
H           26.75082699238034      -11.05209147655563      -13.43141291564489
H           27.26282463781822      -10.59070965218306      -11.81102732762556
H           19.80607383368128        3.14083130010396       -7.96400281181435
H           18.38142866172075        5.11261589892396       -7.85294458217009
H           17.52436920209289        5.52255193453046       -5.36273010870143
H           15.11524975426123        5.19139454632696       -5.25840998755063
