36
 energy: -5.219375133317 gnorm: 0.000716154474 xtb: 6.5.0 (97a52f5)
C            0.85149505567235       -0.17343320560771        0.03405756901402
C            2.37174559060987       -0.14003200264373        0.04138848292987
C            2.93058635336679        1.23780471731921        0.39986404518451
C            4.45884278599220        1.28044576259541        0.41002054173687
C            5.01394209329989        2.65908250928267        0.76861528536351
C            6.54196672686631        2.70450994114636        0.77944602279711
C            7.09523281495362        4.08410868068926        1.13712040963239
C            8.62311286534962        4.13014730974849        1.14976776259690
C            9.17565463016765        5.50939716964957        1.50843452108897
C           10.70283995223588        5.55296095886144        1.53067497222835
C           11.25085937125715        6.92841816171342        1.89138812655346
O           12.66296994793688        6.98171264771187        1.89648661307816
H            0.46344558237683       -1.16202544626181       -0.22260059500805
H            0.44400299212717        0.53664643552946       -0.68842002206227
H            0.44554894142495        0.09468249904069        1.01158709098520
H            2.76106717131812       -0.44654814744442       -0.93874114403716
H            2.76257518500276       -0.88562764872179        0.74672565094133
H            2.54686464534835        1.54702287333838        1.37992211959164
H            2.54579182274406        1.98568282639989       -0.30438249982218
H            4.84301071324107        0.97166271528121       -0.57004917214638
H            4.84406646455836        0.53300814614694        1.11457439879831
H            4.62922119933577        2.96752289227582        1.74850358793507
H            4.62813503876405        3.40609841965222        0.06405552781144
H            6.92700549152874        2.39554793420845       -0.20015589311411
H            6.92797254001541        1.95827279675889        1.48476946820095
H            6.70920504002482        4.39328588079166        2.11626908634371
H            6.70978511822468        4.83017852690485        0.43136995766003
H            9.00967831772972        3.82144803420444        0.17073331418322
H            9.00830338225010        3.38407762460319        1.85561822867225
H            8.78436010969530        5.82059621955122        2.48482881398131
H            8.79577282998740        6.25503207063688        0.79923550539542
H           11.10058622519982        5.25041549285093        0.55524433260643
H           11.08588036459101        4.80945786937981        2.23909638707700
H           10.88179250866202        7.25348352273393        2.87217668042742
H           10.90416179544799        7.68009194136116        1.17247653306808
H           13.02524833269338        6.29392387031175        2.50122829030716
