33
 energy: -4.775294965746 gnorm: 0.000471564632 xtb: 6.5.0 (97a52f5)
C            0.87105562016200        0.14039077622760        0.12110690159504
C            2.39129072003226        0.11612895802534        0.09696462772391
C            2.95059417490299       -0.87968615327283       -0.92018685772670
C            4.47875092838168       -0.90996343061342       -0.95114646364625
C            5.03478968350184       -1.90605400795563       -1.96871079494308
C            6.56273591609719       -1.93779908368924       -2.00183206254462
C            7.11639615594940       -2.93591936462464       -3.01858867775639
C            8.64397186637661       -2.96998575583974       -3.05215257981666
C            9.19575170245943       -3.97495212600255       -4.06210949090816
C           10.71891929972394       -4.00878956791406       -4.09315888061489
O           11.23669906516501       -4.92203040500457       -5.03913148980795
H            0.48302304568943        0.85493304371403        0.85087694040952
H            0.46415328497281       -0.84064896017246        0.37419925105385
H            0.46469205906717        0.41453647397708       -0.85448761782592
H            2.78131172196891       -0.12618535270742        1.09463216379499
H            2.78180376869492        1.11858693048514       -0.12378668091953
H            2.56657346101147       -0.64004316575065       -1.91949984411864
H            2.56654675063930       -1.88385256201824       -0.70183127936892
H            4.86310446432882       -1.15014218579047        0.04779304760054
H            4.86310116417217        0.09385830002697       -1.16995151340698
H            4.64969343843023       -1.66609140682907       -2.96743481300318
H            4.65024649829424       -2.90975641005131       -1.74953204166344
H            6.94812095291790       -2.17702795602156       -1.00305182778318
H            6.94779962203991       -0.93465711476201       -2.22247085327582
H            6.73124385070610       -2.69676517174754       -4.01743515273246
H            6.73053324253286       -3.93870153300985       -2.79775166794923
H            9.02941438337065       -3.20378648961534       -2.05213950493921
H            9.03052588146940       -1.96888592227710       -3.27920816399362
H            8.81960351956082       -3.74301111647415       -5.06505707427022
H            8.81225967435580       -4.97680432469831       -3.83731894490896
H           11.12662442693976       -4.25493071974800       -3.10465654299025
H           11.11924363526106       -3.02073506853554       -4.34907998412421
H           10.87671602082391       -5.82335912733049       -4.87043212713934
