164
 energy: -27.660934341258 gnorm: 0.000514181582 xtb: 6.5.0 (97a52f5)
C            0.22233430174412        2.29782254391817        3.03020130866792
C            1.67492826660054        2.01657332796625        2.68094744911190
C            2.59188212866127        3.20951420707087        2.95378519660092
C            4.05202435785237        2.93541459400117        2.59571752614305
C            4.96669528592984        4.13368225632990        2.84790290005164
C            6.42214665378682        3.85900725046311        2.47324236436802
C            7.33551318579294        5.06760029469392        2.67498202066458
C            8.78396562246282        4.78595233735681        2.27969868654197
C            9.69109730809832        6.00871382033394        2.39203943914673
C           11.12722083635936        5.71520572176806        1.98092323244730
O           11.92089277000216        6.87360399479591        1.92929362706607
C           13.22098902384670        6.54998201199517        1.63103922164492
O           13.63913175353841        5.40997254131579        1.54451418824476
C           14.13674778587572        7.72219612919419        1.52223235557465
C           14.22770706179328        8.49523976389372        2.67561587971699
C           15.03012511557733        9.61294902206735        2.78799365325527
C           15.80370023127595       10.02800540927240        1.71619675134354
C           16.70336108758496       11.20491026227830        1.74360938820732
C           16.92057034990852       12.01714219006752        2.84915817879871
C           17.82964683182947       13.05894317587878        2.78941093554121
C           18.55261284795644       13.37553566116707        1.64322406064363
C           19.63078390668684       14.39437602801276        1.77353495248097
O           20.77058524659494       14.12946050265989        1.43420153737513
O           19.26816002182757       15.58083374567901        2.35193259318266
C           20.36114158126598       16.46085702255750        2.31197282391968
C           20.04452613995117       17.81260208514255        2.93398214100154
C           21.23188097191367       18.77137156936948        2.90310855938790
C           20.92749428521838       20.12140779001645        3.55014904166845
C           22.12409504136802       21.07167654030307        3.53747954795075
C           21.82812736826149       22.41529682103160        4.20272517924916
C           23.02920487061710       23.36051974585721        4.19899521293298
C           22.73788780817842       24.70080902395148        4.87367241785594
C           23.94027236058643       25.64581945799888        4.87216565458154
C           23.64530850109042       26.97572070120440        5.54725788843093
C           18.32148049554356       12.64746719122545        0.44991767390927
C           18.90224915784021       12.89201052473805       -0.86940520749364
C           19.60599907802897       14.16309143371424       -1.19389544999015
O           19.12698964475021       15.23625675302676       -0.87333812186082
O           20.75290930263729       14.03495223511796       -1.92979076038021
C           21.32445278889776       15.30313018444963       -2.12488030613182
C           22.51197897552677       15.26370379590290       -3.07539038045851
C           23.11132970230900       16.64318906587050       -3.33640125552867
C           24.26989029427567       16.61208455235775       -4.33200331932641
C           24.84576887147110       17.99764711786456       -4.62210268849333
C           25.98533596147888       17.97001851777873       -5.64013183375481
C           26.54839829151596       19.35783277761843       -5.94552128228827
C           27.67989156982961       19.33075501254721       -6.97297109549073
C           28.23936018664181       20.71920297566021       -7.28575094196714
C           29.36210232495338       20.68455835393687       -8.31031063274268
C           18.72157446681165       12.01850476417826       -1.92768211709584
C           17.89141248039548       10.88587643545018       -1.79132044973512
N           17.41711736255385        9.82246164749581       -2.57571803060197
C           16.52737084680743        9.04272274034715       -1.81859857017206
C           15.71970624534542        7.90135362585660       -1.97781116220724
C           14.91262660344850        7.44368177342264       -0.95176200524785
C           14.11294391897921        6.24785546516412       -1.33767032587462
O           14.66611155860757        5.36669972474018       -1.97355684495697
O           12.77618866701963        6.23827892593647       -1.05191586036730
C           12.18440629656284        5.03828245407226       -1.49800236040746
C           12.75316627196912        3.79946518611841       -0.80520305728872
C           11.92383254560309        2.53153377620706       -1.00978933167142
C           10.57872002333298        2.57870966825887       -0.28649026585799
C            9.76739098822375        1.29092571651591       -0.41483395158456
C            8.41462804031928        1.38451961619304        0.29002622762324
C            7.59683295629114        0.09652732359201        0.21417446536904
C            6.23197044671056        0.22544846536692        0.89031249155675
C            5.41019215067343       -1.06268742528433        0.84363577939523
C            4.04788657090327       -0.91351956691197        1.50174539992220
C           14.87949141262174        8.08888340974840        0.36669400480368
C           15.69292697763713        9.23727671102932        0.53462674971415
C           16.45656019476486        9.63699827607063       -0.56375785368654
C           17.27980713741630       10.74662606439303       -0.54775115857430
C           17.43296648845847       11.55793412968669        0.57512858860128
H           -0.42158414786097        1.43839731243317        2.83124893470405
H           -0.16633425870499        3.13930656072757        2.45392067166827
H            0.11220045207887        2.55296575357916        4.08563663798016
H            1.75945148375689        1.72946254745825        1.62465997742484
H            2.03691946665392        1.14529075672019        3.24236270737428
H            2.51875819214516        3.49752876380703        4.00942107958009
H            2.23420234771262        4.08289366196320        2.39515206686067
H            4.12011278681498        2.63785028145814        1.54261351861992
H            4.41476555972310        2.06916462485167        3.16180581104527
H            4.90565928745445        4.43164662606469        3.90152112678731
H            4.59973596792957        5.00026960969651        2.28470856897432
H            6.47261305176034        3.53464088469812        1.42718966994329
H            6.79970647879398        3.00924856131416        3.05457743062280
H            7.29304987555315        5.39636407771649        3.72017822944917
H            6.95468606496222        5.91553144012656        2.09307406343422
H            8.81004915101130        4.40991193278657        1.25058638625425
H            9.18424189958070        3.97003516599750        2.89318224844589
H            9.67650432423288        6.40345639881391        3.41390271690531
H            9.30285346723461        6.81964184277965        1.76555042851090
H           11.15528261186803        5.27068131764373        0.98141797611418
H           11.60641199584122        5.00606858470725        2.66735133177760
H           13.63479555514002        8.19046910235014        3.52187513844375
H           15.05634241408843       10.16375266727675        3.71112234401255
H           16.39943021438730       11.81589397530083        3.76785255485854
H           18.01908528160363       13.64446132251293        3.67328998514710
H           20.64575126607943       16.56409957360503        1.25624916097998
H           21.19826324888230       15.97041004695565        2.82529780923274
H           19.70853743420013       17.66204446643193        3.96594790593186
H           19.18681973726087       18.25438198828658        2.41455674701944
H           21.55634333992203       18.92259370093775        1.86665156065872
H           22.08962337316033       18.30833858868397        3.40542760125334
H           20.59219218753257       19.96648769261112        4.58270659587486
H           20.07692459106269       20.59106591455241        3.04175842408812
H           22.45365558401297       21.23582245822978        2.50447381819224
H           22.97686426695367       20.59508166173811        4.03585148403309
H           21.49385844218601       22.24931928568688        5.23399331533313
H           20.97883591950122       22.89560708068434        3.70198970601091
H           23.36023735037285       23.53121867175723        3.16756005310101
H           23.87947874349813       22.87653828060757        4.69440026912315
H           22.40610750094073       24.52928353325136        5.90481433296310
H           21.88789607768987       25.18546119191900        4.37835908771330
H           24.26927256738083       25.81176293414925        3.83794134652622
H           24.78906177626372       25.15268207799943        5.36389203763351
H           22.82576621986067       27.49763283252646        5.05012386143402
H           24.51126080428823       27.64122689014092        5.53936739207315
H           23.35097265056566       26.83309199087072        6.58852126352600
H           21.61270011555350       15.68051297751820       -1.13521081522285
H           20.53529444358309       15.96476672374188       -2.50508241869527
H           22.19582504113858       14.80774204611274       -4.02028426585751
H           23.27439747226877       14.58774686427858       -2.67249472196951
H           23.44618694276483       17.08564485696686       -2.39064157762969
H           22.32927615525868       17.31752799425196       -3.70547993013695
H           23.93547633040129       16.15080230157702       -5.26902746135770
H           25.06193292890362       15.95295327980111       -3.95698153377459
H           25.19485319200269       18.45528978335890       -3.68866826993863
H           24.04811214832985       18.65854826996150       -4.98223379941191
H           25.63680323994097       17.50260627372039       -6.56904127082633
H           26.78846944481133       17.31738655428293       -5.27715670144397
H           26.90293468373040       19.82398123108778       -5.01839832422976
H           25.74305276484068       20.01094353916759       -6.30258458897285
H           27.32546568708738       18.86033982332229       -7.89809806980390
H           28.48710794947847       18.68050397427838       -6.61480118604982
H           28.59011106242382       21.18646065337226       -6.35621617999146
H           27.42580725809730       21.36652406624784       -7.63866104219843
H           30.19636265795900       20.07346795606794       -7.96136057809218
H           29.75275996833988       21.68152827769494       -8.52537289292330
H           29.02205981728441       20.25488888963458       -9.25422504739191
H           19.17365101963617       12.23370071832157       -2.87812677468841
H           17.66985943798889        9.64924143314308       -3.54847993756695
H           15.73103259483630        7.37225805889183       -2.91322045532798
H           12.32358535606589        4.98282867527562       -2.58494251762697
H           11.10759172418759        5.13652955805247       -1.32260865685557
H           12.85532397375799        4.01046882083608        0.26432185918936
H           13.78405101920042        3.65259811592990       -1.15185819303516
H           12.48551520239133        1.65591761006560       -0.66036346299908
H           11.76391634264593        2.36417407935146       -2.08127902641132
H            9.98345511807325        3.41804095791748       -0.66272801433067
H           10.74510165268360        2.79689164579198        0.77515551922128
H           10.34065916624168        0.44951053000661       -0.00777454876543
H            9.61775317904487        1.05048170232718       -1.47415489684334
H            7.83655052797274        2.21107981850974       -0.14038094487877
H            8.56706113565812        1.65911724441410        1.34081978580362
H            8.16014564150277       -0.72610675297207        0.67073504947993
H            7.46353294204482       -0.19550457771006       -0.83435449208157
H            5.66647832363652        1.03843819269613        0.41952325300130
H            6.36612361365948        0.53751582811830        1.93303536314401
H            5.97617054515609       -1.87156334171195        1.32399300596826
H            5.29257140004299       -1.38000509289916       -0.20078198757679
H            4.14512269672844       -0.62651046765194        2.55024313062447
H            3.47075752100172       -1.84004826089936        1.46716073315055
H            3.45556974900041       -0.14031241495797        1.00963083383886
