30
 energy: -4.331295445996 gnorm: 0.000520014533 xtb: 6.5.0 (97a52f5)
C            0.92404077377072       -0.04626782873167        0.00395975172262
C            2.44426718036034       -0.05500989705729       -0.03101163467811
C            3.00209023925204       -0.35287151402079       -1.42355343925502
C            4.53021429344992       -0.36336455071279       -1.46695729455593
C            5.08542828170486       -0.66176495180437       -2.85967694060962
C            6.61328528827200       -0.67039142456040       -2.90515701551265
C            7.16688501209977       -0.96747563293013       -4.29848854297160
C            8.69399846206291       -0.96712372422022       -4.34692754407014
C            9.24257716530911       -1.26234438933755       -5.73768465580379
O           10.65465082298580       -1.28441085906862       -5.78654412522845
H            0.53729202451471        0.16721547788517        1.00319085983328
H            0.51606066627865       -1.01014240291002       -0.30659455006656
H            0.51749770351833        0.70762415539175       -0.67303963639119
H            2.83435027769707       -0.79363173242658        0.68212762231521
H            2.83578822970236        0.90983058673098        0.31838421530780
H            2.61826966938284        0.38453045286492       -2.13925635209770
H            2.61688136770713       -1.31766296346371       -1.77575394613175
H            4.91438113162087       -1.10061742312166       -0.75131454326968
H            4.91559866036127        0.60164462287259       -1.11554386714334
H            4.69989904708129        0.07478957218945       -3.57530413286398
H            4.70089816382462       -1.62728356037040       -3.21055729435976
H            6.99953704689144       -1.40727043630988       -2.19030751389680
H            6.99775221151362        0.29510958367447       -2.55420843129973
H            6.77596538373503       -0.23393625394083       -5.01425616175188
H            6.78729133829790       -1.93560929746953       -4.64746281675267
H            9.09144786116788       -1.70306489510294       -3.63874710831639
H            9.07700695805612       -0.00047429833709       -4.00037940289161
H            8.87529372124640       -0.53088852420660       -6.46845327127685
H            8.89466922195993       -2.24151941043981       -6.08729649909242
H           11.01803179617510       -0.43345848106644       -5.44858572889131
