82
 energy: -14.506577384289 gnorm: 0.000761943408 xtb: 6.5.0 (97a52f5)
C            0.84989281574017        1.39244178015771       -0.78638679917702
C            2.17907516897999        0.69659725811070       -0.54142647619663
C            2.86513755196554        0.25695644851582       -1.83553234758811
C            4.19767407573232       -0.45191248088111       -1.59506011168654
C            4.88399347719450       -0.89064580128184       -2.88803819186622
C            6.21118416545932       -1.60672676374343       -2.64382117439600
C            6.90466275102937       -2.03595394754014       -3.93443300781746
C            8.22776289832895       -2.74086467435166       -3.69059711132650
N            8.87391166447228       -3.12996177751367       -4.94400461980736
C            9.53141627763920       -2.13718175942603       -5.69550369157059
O            9.46931974079725       -0.93206188307227       -5.50556657743205
C           10.27254988782499       -2.85960283330003       -6.71564919919225
C           11.16661732249015       -2.68977309611178       -7.78489929363440
C           11.67088392900160       -1.40912527653520       -8.27379056776706
C           12.77160832601206       -1.31057367683119       -9.12767059041878
C           13.19813966042728       -0.08837181549718       -9.60529808223282
C           12.54847902586827        1.06876067612387       -9.23386129541471
Br          13.12738903495577        2.73833744777058       -9.90368872646735
C           11.47966394398696        1.00261477528251       -8.36691928355340
C           11.05211174622070       -0.21733628454987       -7.88796110703753
N           11.41887732064740       -3.97224639446395       -8.27829180871253
C           12.16003920301556       -4.39785509163559       -9.46566935871467
C           11.53052940587843       -3.89312069655385      -10.75446321763821
C           12.32988986798284       -4.27742273014936      -11.99706184474605
C           11.71338876265269       -3.74833778749029      -13.29077218204169
C           12.51753367042541       -4.13085419807423      -14.53260613753173
C           11.90224173894519       -3.60678207034412      -15.82987979842359
C           12.71088551615145       -3.98662936067538      -17.07093619167121
C           12.09573377773985       -3.46228634140473      -18.35833771673976
C           10.72573738718167       -4.95761902504980       -7.54947287803214
O           10.76034674745300       -6.16295510748497       -7.74515951151538
C            9.98403088345199       -4.22945831020980       -6.53952563026242
C            9.10045169037398       -4.40345950468996       -5.46485516424999
C            8.55128118911182       -5.67262592670429       -5.00190132137016
C            7.38579772141854       -5.73520973416804       -4.23549394177249
C            6.89092201456458       -6.94517509139377       -3.79399957478700
C            7.53560519254244       -8.11969633579731       -4.11864078002243
Br           6.85645910422006       -9.77240407315094       -3.50323836688970
C            8.66850185308114       -8.08510229522992       -4.90285549754540
C            9.16570452292943       -6.87839363813525       -5.34744507464809
H            0.37060538605287        1.70172720680569        0.14492988553798
H            0.15298454791230        0.73759070591758       -1.31229015499963
H            0.97871748112437        2.28480419456784       -1.40132021639888
H            2.03405111926125       -0.17764780337120        0.10662747275569
H            2.85331565794700        1.35652673864711        0.02002257961588
H            3.02282592968339        1.12792442468835       -2.48307340967778
H            2.19527533282447       -0.40105866802311       -2.40211881187885
H            4.03957431863375       -1.32350801790403       -0.94854199471825
H            4.86760806024663        0.20535857086613       -1.02778891912365
H            5.04945739557997       -0.01852414108648       -3.53206640942010
H            4.21274789652095       -1.54345362572416       -3.45898394325467
H            6.04560034192759       -2.48328796809945       -2.00592878749203
H            6.87997789343405       -0.95626174176484       -2.06743244823622
H            7.08264129845879       -1.16214863515753       -4.57320588025183
H            6.24231911324165       -2.68350160802581       -4.51986376350615
H            8.11528151133023       -3.61254219761548       -3.04179599900965
H            8.91634716114106       -2.07022530900041       -3.16660737745402
H           13.31599407048656       -2.19242199142808       -9.40156493618115
H           14.04492925615340       -0.02221327323308      -10.26894484152881
H           10.99213274624831        1.91476517470441       -8.06340351273586
H           10.25235172520359       -0.25717517989454       -7.17124345855329
H           12.17367194434357       -5.49317309541497       -9.46226810516180
H           13.20577769763824       -4.09853299450503       -9.37022579906116
H           11.41554116464430       -2.80469295296040      -10.70995541585647
H           10.50711844661176       -4.27884700111035      -10.83150270753788
H           12.42450470308975       -5.36854426879029      -12.05119894790979
H           13.35735330529113       -3.90604429725500      -11.90148754509588
H           11.61898129865120       -2.65713708596297      -13.23406162456775
H           10.68582274541055       -4.11898440146572      -13.38758989039057
H           12.61477981104203       -5.22186167324882      -14.58594887096597
H           13.54421108807489       -3.75794849300484      -14.43491389126307
H           11.80195133009410       -2.51603695320635      -15.77544991292203
H           10.87657089701571       -3.98206924535023      -15.92927956573451
H           12.81103691165689       -5.07894510532202      -17.11730382018134
H           13.73738759358393       -3.61254692154111      -16.96292637719882
H           11.08596634067588       -3.85118035713730      -18.50040131432345
H           12.68182777262841       -3.74152791967083      -19.23655392202746
H           12.02200213959229       -2.37350375902016      -18.34546681480203
H            6.83883574409241       -4.83493486774652       -4.02677024977074
H            5.99278961294737       -6.98844705546193       -3.19965041268877
H            9.14901212514079       -9.01138099087198       -5.17290521849568
H           10.01319805940840       -6.85832001311999       -6.00909044323235
