150
 energy: -29.202893205823 gnorm: 0.000230397157 xtb: 6.5.0 (97a52f5)
C            0.78354083371593        1.78959719573701       -0.53786398825649
C            2.18666918893733        1.22176345775724       -0.39452011251292
C            2.86321654581330        0.96998941344786       -1.74256753954854
C            4.27401026428496        0.39749951341044       -1.60781484201953
C            4.94127999544976        0.13610927864892       -2.95730046516366
C            6.34979728763419       -0.44105368411572       -2.82747156347518
C            7.00260773017816       -0.71530169620937       -4.17966848245721
C            8.39788514674614       -1.30752217691294       -4.06419437982061
N            8.94869102052653       -1.63590036279384       -5.37767206299715
C            9.57609210697284       -0.60451995220096       -6.10579961864812
O            9.66163806296423        0.56767560642513       -5.77780897358790
C           10.10840438462261       -1.25278308783371       -7.29061456268163
C           10.83600955166963       -0.99965387825660       -8.46814224071768
C           11.30046036801282        0.30120953970981       -8.92365447643471
C           11.57652784298593        0.55506978199215      -10.27036922675871
C           12.00487758309364        1.78955401189132      -10.68576807929614
C           12.16662519692371        2.84187777871809       -9.77817435767875
C           12.61640651795112        4.17713633339364      -10.21618808858134
C           12.13436146343617        4.75552446525641      -11.38702851511969
C           12.79127996680184        5.93665703497217      -11.98686703604216
C           12.02889306005201        6.98672075969570      -12.50328442274425
C           12.63326045829324        8.08536294654172      -13.07130114611794
C           14.01032512458257        8.15919527998706      -13.14312923845409
C           14.78256060821864        7.12734387967533      -12.64743399596179
C           14.18232078745370        6.02686338676739      -12.07888347895726
C           10.93496115351702        4.22323977829987      -12.06903216422920
C           10.88596654915724        4.14630951118848      -13.46260407970660
C            9.76949062913325        3.65974387492845      -14.10442418783973
C            8.67471235950427        3.24426081430876      -13.37243777526665
C            8.69772191146296        3.32240839387962      -11.99410597657396
C            9.81101177858866        3.81058260131861      -11.34873780765529
C           13.59098411585950        4.88410461513870       -9.35525372583927
C           13.45676115204125        6.24416076705257       -9.06870849750537
C           14.36415632396726        6.88792558218432       -8.25794818291224
C           15.42011143944666        6.18846018813219       -7.70825976817016
C           15.56427401220022        4.84033651481918       -7.96970461226061
C           14.65964475312049        4.19333211567928       -8.78117265732370
C           11.88173664465071        2.59219194573524       -8.43229117550196
C           11.44531380506701        1.35982485344047       -8.02145198276515
N           11.01803929224355       -2.23364191658083       -9.08024081466555
C           11.88003315618061       -2.59086706808546      -10.20617250720325
C           11.07065870497498       -2.96657817731430      -11.43544570390868
C           11.94121456531042       -3.34516501973000      -12.63095818331289
C           11.12612870104924       -3.73535979809352      -13.86262428061589
C           11.99848216793162       -4.11880843696970      -15.05735077269212
C           11.18478821451103       -4.50858378345642      -16.29102915966383
C           12.05737287450717       -4.89354869477236      -17.48649795841790
C           11.24199539887340       -5.28455257659807      -18.70875875331865
C           10.38935419879626       -3.26956899481475       -8.35728447321281
O           10.39028289164049       -4.45426699890989       -8.64995650861139
C            9.78965276994128       -2.61817503101007       -7.20226118508585
C            9.03815619627401       -2.85954870928472       -6.03428202379349
C            8.50035023670576       -4.14565807014912       -5.61718664795841
C            8.94923526060240       -5.32769366566196       -6.21475464548381
C            8.47977030720131       -6.55349752630962       -5.82188500509603
C            7.52723542843804       -6.66851243348748       -4.80446153680423
C            7.00950581046329       -7.97619664963742       -4.36497944804057
C            7.82366253947937       -9.10327473680838       -4.29901123981378
C            7.24789811980452      -10.45640618684706       -4.14413262749126
C            7.85205012658797      -11.39118666883935       -3.30045937681184
C            7.32784808341256      -12.65584858026202       -3.15611892108406
C            6.19314924521479      -13.01963445818883       -3.85388280338404
C            5.58609188629691      -12.11443651296112       -4.70162450611047
C            6.10787495741654      -10.84936407535845       -4.84959767255441
C            9.29768210218861       -8.99513105460123       -4.35629486579208
C           10.04656444496758       -9.89907957677715       -5.11286088056516
C           11.41896502595059       -9.80716890625829       -5.16705206480009
C           12.07577080844307       -8.81674438685651       -4.46378606496037
C           11.35510844014613       -7.92023718482571       -3.69987733572392
C            9.98290685936209       -8.00968629639242       -3.64116432140552
C            5.58186288339777       -8.04732592035470       -3.97596164176373
C            5.18283294093026       -8.68845287328397       -2.80135077854225
C            3.85489875397946       -8.74111607139347       -2.44237816140897
C            2.89709635784078       -8.15025304166837       -3.24244224802062
C            3.27200059678988       -7.50331505078334       -4.40336187861035
C            4.59887686065159       -7.44924354559011       -4.76660830591804
C            7.03797445928859       -5.48639506382734       -4.24084504346698
C            7.50800584883818       -4.26115561768049       -4.63871667717288
H            0.30963772274928        1.96350721860613        0.43081231445725
H            0.13922095679920        1.11224064193545       -1.10145734553345
H            0.79546103006086        2.74100224054247       -1.07289017124569
H            2.15877257149745        0.28484699946116        0.17748688423236
H            2.81013269047361        1.90002022924805        0.20296396513005
H            2.89804574333334        1.90349935707431       -2.31746526089978
H            2.24604800316598        0.28996459132796       -2.34246010053533
H            4.24046219525332       -0.53261102273859       -1.02749930552816
H            4.89484986182464        1.08062150282784       -1.01552361871607
H            4.97667766256955        1.06600261847669       -3.53793257673951
H            4.31832701696961       -0.54537386879903       -3.54956064193837
H            6.31591359006021       -1.36717009289138       -2.24077246386353
H            6.97918309048429        0.24318607373060       -2.24571020241866
H            7.05584071292550        0.21029929466831       -4.76586922914352
H            6.36691103259964       -1.38304994212853       -4.77222342955436
H            8.42378063199757       -2.18969753971869       -3.42025589999715
H            9.07395860469364       -0.58399554097964       -3.59710920552868
H           11.40013287872255       -0.21447376199715      -10.99876950916314
H           12.21343584671153        1.96587810343354      -11.72683347439172
H           10.95571250038715        6.92854757740632      -12.44335882584189
H           12.03040896212334        8.88971587005995      -13.46020859309551
H           14.48189731188411        9.02065768885527      -13.58720556662722
H           15.85729332900243        7.18359349892959      -12.70566435402092
H           14.78303909576977        5.21929996860610      -11.69772367677025
H           11.74127183681496        4.46819838395852      -14.03136975849402
H            9.74984740750886        3.60293390337590      -15.18054014178121
H            7.80213184877966        2.86182369395658      -13.87645637898440
H            7.84298515458494        3.00012187820136      -11.42209920425851
H            9.82630467667907        3.87768230996789      -10.27469800790776
H           12.62958166524590        6.78696255998583       -9.49235723580873
H           14.24950027476884        7.93951657987265       -8.05151021003519
H           16.12941846335717        6.69366973240712       -7.07316445884689
H           16.38594085369461        4.29318029081590       -7.53713309089283
H           14.76998669213612        3.14241738028516       -8.98662429846629
H           11.98285903310603        3.39483828942943       -7.72220460203853
H           11.16298515903584        1.20537085322782       -6.99525823782967
H           12.49457024317790       -3.43947787310918       -9.88920362893974
H           12.58105284547774       -1.77815486180238      -10.41067211694004
H           10.40158466441983       -2.14122329840094      -11.70423483083343
H           10.40333083487710       -3.79856657523628      -11.17883573257517
H           12.60725401183455       -4.17102259553347      -12.35300321728740
H           12.60886852966547       -2.51100378538923      -12.87888287597696
H           10.46094046962111       -2.90892799402200      -14.14127102625184
H           10.45696633763530       -4.56765724588135      -13.61241391905299
H           12.66246121318047       -4.94579243752775      -14.77765493432232
H           12.66898497264934       -3.28709742278782      -15.30567871782799
H           10.52063469794893       -3.68164724999608      -16.57070365946943
H           10.51404079461310       -5.33995420570069      -16.04190453587754
H           12.72434038616125       -5.71675280725826      -17.19793320425408
H           12.72742346808114       -4.05840907060638      -17.73012706580902
H           10.59286736258679       -6.13559117963247      -18.49445264202294
H           11.87592365685995       -5.56008319505773      -19.55458050167562
H           10.59940710111165       -4.46417054759137      -19.03374313858408
H            9.65458604593802       -5.26017152803417       -7.02308692304662
H            8.83765485794159       -7.44584816335652       -6.30522261255500
H            8.73489171917135      -11.10514363023745       -2.75508777465443
H            7.80393527044171      -13.36344256738486       -2.49709395895542
H            5.78317984538651      -14.00978649572285       -3.73884176210645
H            4.70199086460085      -12.39876103953309       -5.24857960565006
H            5.63913496421485      -10.14625742795657       -5.51597571758388
H            9.53199905313964      -10.66765415978738       -5.66351921062184
H           11.98186216954329      -10.50836814514858       -5.76125990153870
H           13.15007280665112       -8.74378058235960       -4.51069542104099
H           11.86760525440839       -7.14745873772442       -3.15056939408342
H            9.42022970447970       -7.31404192310079       -3.04289631873796
H            5.93171140656146       -9.14424976391054       -2.17687096331870
H            3.56267965368723       -9.24443336922698       -1.53523881558810
H            1.85776351821544       -8.19255846309330       -2.96010424978979
H            2.52455782839885       -7.03992760813409       -5.02645215529685
H            4.89400174837505       -6.94745129621544       -5.67213374488914
H            6.28040344588772       -5.55121778130653       -3.47881732172957
H            7.07043690300118       -3.37651957377555       -4.21833197602696
