130
 energy: -25.418610831054 gnorm: 0.000773559600 xtb: 6.5.0 (97a52f5)
C           -0.74004834182080        0.97308940755649       -0.90347121478703
C            0.76514807369449        0.93814399857211       -0.69310136997512
C            1.54344246164719        1.50456401697349       -1.88146642520308
C            3.05717978826069        1.47553647594457       -1.67281133592726
C            3.83690029764170        2.04527870019980       -2.85732169042443
C            5.34847258679477        2.02830853862418       -2.63684361436006
C            6.13062502323937        2.62383091191274       -3.80487750152888
C            7.63036279259581        2.64392851358957       -3.56507051465895
N            8.34860777293031        3.27706938133499       -4.67186068364565
C            8.32831281498588        4.68584799841927       -4.74818815519894
O            7.62248087103232        5.43785761653708       -4.09728735163372
C            9.32003874528951        5.02312996921335       -5.75404899382780
C            9.93722649891694        6.12161933749007       -6.38385560366453
C            9.58853119130394        7.51729616231501       -6.17038184579340
C            8.32831510636696        7.85445807465603       -5.66474401415340
C            7.95466324540099        9.16001073115645       -5.49266653796449
C            8.83868132332641       10.20905695024864       -5.77599544073746
C            8.46329854858875       11.60280416275186       -5.62769237018242
C            7.55376055709893       12.14729483208998       -4.75379693484796
C            7.02474686165695       13.49919617321437       -4.99519034255326
C            7.70414891696144       14.44865716681772       -5.76450282832159
C            7.15083766613610       15.68030766433464       -6.02458571701587
C            5.90145699638533       16.00289215575732       -5.52783744547919
C            5.21684632299000       15.09247701116571       -4.75934335674930
C            5.76295362711112       13.84877022217454       -4.47706238074293
C            5.01854750687355       12.91441106811481       -3.62135041531566
O            3.85421844722387       13.11677557763823       -3.32830139277474
C            5.74772273867562       11.75624980697560       -3.08823401073859
C            5.20645600073788       11.03300954476802       -2.03469277900045
C            5.91108320396834       10.00772478362351       -1.45006633492155
C            7.18308615039848        9.70435026114655       -1.89968306786368
C            7.72972017641617       10.40546994077813       -2.94793779684340
C            7.01390638007577       11.41456682468595       -3.59806735063886
C           10.10211212660474        9.87336107383270       -6.27951172840970
C           10.46902339651079        8.56506289240027       -6.46017140737395
N           10.86053500831151        5.58449029409600       -7.27156435741529
C           11.67467006154904        6.25161191119498       -8.28755013117122
C           10.83045472781875        6.97816427907049       -9.32339611095978
C           11.66487125304864        7.79335313341864      -10.30820891256031
C           10.81307313256345        8.56778958640601      -11.31249915209376
C           11.64623343763344        9.42290291406449      -12.26637719739518
C           10.79489573257032       10.21831880788680      -13.25561080974860
C           11.62841260685222       11.08145765011072      -14.20375176489629
C           10.77594760555193       11.88003152167434      -15.17676069722952
C           10.85986031688952        4.17313222868171       -7.22705187735033
O           11.56411928361959        3.42917934740447       -7.88858344453633
C            9.85411857055806        3.82147637893710       -6.23720663583681
C            9.23053858309934        2.72951162031498       -5.59714552596047
C            9.47302301887969        1.32537647408954       -5.87942430386259
C           10.59827985232538        0.93277906274378       -6.61260415709843
C           10.85368384738009       -0.38583121106482       -6.87780518080027
C            9.99530271206869       -1.39458879403626       -6.42042760354645
C           10.21809586407985       -2.79805052326640       -6.71566703545856
C           11.41354932000298       -3.44808191177361       -6.90398033251416
C           11.43467392759722       -4.76879289065127       -7.55318193056782
C           10.31598021119839       -5.60680872234984       -7.59478498009884
C           10.34984135656197       -6.80630411006950       -8.26630431593637
C           11.50035193030609       -7.20750369474113       -8.91958392280328
C           12.61814768337275       -6.40934693394159       -8.88428922586881
C           12.60659201610977       -5.20054588372500       -8.20351951314831
C           13.83274855164867       -4.39276439453137       -8.15632597562656
O           14.79074503027986       -4.65868247350986       -8.85915319174088
C           13.88036985936033       -3.28858543489248       -7.18955000283225
C           15.10167822008014       -2.70780217127028       -6.87800321061678
C           15.19400216291860       -1.74518111179802       -5.90129399969211
C           14.06205749075408       -1.36256935905580       -5.20539075434905
C           12.84308674457981       -1.91991172921050       -5.50995613178038
C           12.71070650957219       -2.86177986470774       -6.53390358912034
C            8.83202317264319       -0.99827705440731       -5.74801901117117
C            8.57968860358887        0.32321041101325       -5.48549331467640
H           -1.28352695164858        0.56555114542916       -0.04838690510859
H           -1.02928366811685        0.39417202563174       -1.78220208859642
H           -1.09291122535437        1.99379906034075       -1.06036377340522
H            1.09604768025927       -0.09078170310712       -0.50062438142396
H            1.03259718185802        1.49599793948478        0.21383769778675
H            1.21865706538155        2.53356197246773       -2.07715874524698
H            1.28594473739241        0.94723743268666       -2.79011469988370
H            3.38302031230935        0.44675081942181       -1.47815490481534
H            3.31310896211678        2.03202674403655       -0.76321225648417
H            3.50629815243718        3.07194649665834       -3.05554776054642
H            3.58985154110196        1.48535060562797       -3.76725312498024
H            5.68462885579086        1.00075484330705       -2.45349535370976
H            5.59073753872524        2.57615312031185       -1.71829966102928
H            5.79191016479301        3.64947633080868       -3.99607668452661
H            5.90842026573999        2.07576381942587       -4.72730494345583
H            8.03244025611743        1.64629069931328       -3.37539218003142
H            7.85324380774340        3.22528141451446       -2.66460573947960
H            7.65517041665425        7.06428108653042       -5.38300330277029
H            6.96537468186067        9.39116169048719       -5.13802979234207
H            8.90006047972804       12.26257017734286       -6.35679213933301
H            8.68545682586697       14.22484539543576       -6.14252474056051
H            7.69197703586389       16.39827237254535       -6.61888186660995
H            5.46846465444000       16.96729694945839       -5.73691026847251
H            4.24605882252637       15.32769619068613       -4.35727000887097
H            4.22811601881580       11.30570873639158       -1.67701375979267
H            5.48039446083982        9.45292001569646       -0.63280672921051
H            7.74401619847291        8.91202159650817       -1.43174438385306
H            8.72666646298066       10.17506214117255       -3.28045353308275
H           10.79481755910176       10.66481221288258       -6.50918619906612
H           11.46212932396976        8.33992265969621       -6.79908079580161
H           12.28784962410873        5.48424518973967       -8.77179266305955
H           12.38213674675562        6.92271914880665       -7.79615503476588
H           10.11473307645553        7.63536500283186       -8.81770119909892
H           10.21059963099579        6.25244077650241       -9.86280877305471
H           12.35982552412283        7.13293448209691      -10.84030129321652
H           12.30285558871627        8.49266632381339       -9.75445403961973
H           10.10147010916944        9.20573929719104      -10.77446351005125
H           10.19228159356408        7.86953641769021      -11.88656748587563
H           12.35000118302364        8.78492372430403      -12.81420357607371
H           12.27559439864358       10.11023161465948      -11.68836446279083
H           10.08884839283523       10.85253341530390      -12.70609471683881
H           10.16767797161141        9.53196070027449      -13.83708237472434
H           12.33058004582324       10.44123531690330      -14.75354998150465
H           12.26249464009300       11.75730347700368      -13.61515639511744
H           10.16023382048907       11.22295172992293      -15.79313654689759
H           11.38277677973276       12.48839476215358      -15.85067322361245
H           10.09860762645591       12.55271273718231      -14.64800851272277
H           11.24485720987015        1.69366200679737       -7.01165371771079
H           11.71107605076856       -0.65819595762576       -7.46855684256939
H            9.31943101294657       -3.36478365771271       -6.88515012791532
H            9.41775149243207       -5.32422684633269       -7.07604636573121
H            9.47610680459303       -7.43695171177766       -8.28528464857155
H           11.52280839906944       -8.14585705619966       -9.44898712404837
H           13.52627109678300       -6.70804364764156       -9.37986785634387
H           15.97702667211605       -3.04302634860523       -7.40803308322483
H           16.14838346619138       -1.30350447199751       -5.66613774653444
H           14.13597976782519       -0.62404448597478       -4.42409003802411
H           11.97135240442435       -1.63170238382057       -4.94934682820286
H            8.13078624189503       -1.75343746410644       -5.43644723805352
H            7.65314072921260        0.59665862741940       -5.01686333592807
