148
 energy: -30.127037958242 gnorm: 0.000691398997 xtb: 6.5.0 (97a52f5)
C            1.54769237034572       -0.69783161793869        0.22258807359638
C            3.03925030502837       -0.57612736112061       -0.04510412405644
C            3.36536479436154        0.45782381404922       -1.12372236957465
C            4.86360365757621        0.58506316885253       -1.39693771503967
C            5.19118483396910        1.62725584538442       -2.46557149593333
C            6.68989330563411        1.75517317837424       -2.73187446989512
C            7.02310577967043        2.80630484413920       -3.78767046240943
C            8.51301627879645        2.93859445070128       -4.04339264601464
N            8.79548068658047        3.95216986734347       -5.04019451540961
C            9.06152327147055        3.52915991006861       -6.34943143192388
O            9.00629754444736        2.34906563136290       -6.65776669555252
C            9.39266736834935        4.55985311664818       -7.33139082494208
C            9.76628257673670        4.21196681249712       -8.61316090513077
C            9.97471410842689        5.17394099040860       -9.57656205559159
C            9.83139003647869        6.53614420975796       -9.30174126605573
C            9.90080611734482        7.56631864259761      -10.32724627589903
C            9.71606894256047        7.29014624216063      -11.70984635546771
C            9.11497990642120        6.01587772326681      -12.16734102252444
C            9.78009950655540        5.16220365384999      -13.05329889815912
C            9.30328643700560        3.89532622600329      -13.29165192704728
C            8.14580031327853        3.44136815807419      -12.65900947173745
N            7.81129515734249        2.04489997581505      -12.64641966711613
C            7.75416413126855        1.27671158794321      -11.46390118207714
C            7.91477248540687        1.66153455793426      -10.13529202729999
C            7.92791068406899        0.69645970171088       -9.16016652264029
C            7.76020859214615       -0.65055159636353       -9.48785741776214
C            7.59594085240975       -1.04746849054299      -10.79577394314064
C            7.60239805571707       -0.07741920823792      -11.79909073022372
C            7.55193345367505       -0.15132700332836      -13.24387534320548
C            7.42105759298672       -1.22279152758450      -14.12615843766892
C            7.43309357350856       -0.96932701420021      -15.47760713957181
C            7.57571642037437        0.33199275114956      -15.96479179946987
C            7.70989225425269        1.39790215062523      -15.10900291640307
C            7.70025187882012        1.15755786069014      -13.73699657457167
C            7.42954580372677        4.32513978766224      -11.85524865718006
C            7.90179188543377        5.58952737426510      -11.61755993253870
C            9.99780505177510        8.28251523947793      -12.65054666250193
C           10.38006413646891        9.54864681178921      -12.27833432245339
C           10.44156617873633        9.88758282946397      -10.90611931711037
C           10.77731480581023       11.20237750837534      -10.51384180577984
C           10.84338193634325       11.51484583429858       -9.17889341495553
C           10.55881924676058       10.58358668605325       -8.17757722861609
C           10.79780342699985       10.99160692559592       -6.77517848493048
C           10.15892239914420       12.11057073426528       -6.23480521452097
C           10.32832488779135       12.44387688236922       -4.91432813695475
C           11.14406337635298       11.67594032473059       -4.08727965211687
N           11.25757994694341       11.97452314239067       -2.68992735573686
C           11.08215144977946       11.05236669635561       -1.63568356907416
C           10.75907868703398        9.69643240674967       -1.65433137715751
C           10.61618399463912        9.03509080785161       -0.45930118938730
C           10.78609869378591        9.70142684664555        0.75636584600597
C           11.09445144243110       11.04095763183495        0.79230427219923
C           11.24098453411919       11.72591787468769       -0.41317076431389
C           11.52426107226163       13.11048053895950       -0.71947096991787
C           11.76842006613225       14.22055944762081        0.08791802469894
C           12.01311340477799       15.43240556286265       -0.51368927267819
C           12.02117404674741       15.55557730744654       -1.90479674482361
C           11.78073883171906       14.47127013841467       -2.71278388649055
C           11.52316177089741       13.23728829231193       -2.11871329853990
C           11.81500901652390       10.58421706873295       -4.63116539778493
C           11.65297023156166       10.25288574741084       -5.95214587552166
C           10.13573251266260        9.27617328427600       -8.53882670935389
C            9.66540350179563        8.29295462963846       -7.57100928179081
C            9.26338027121191        8.61952129779450       -6.27308900083796
C            8.94600624277598        7.65513551458952       -5.34054091543503
C            9.00424507722284        6.31281504950698       -5.65662596251501
C            9.33432142928398        5.92798306289637       -6.97596663588737
C            9.61222820450919        6.92248912109869       -7.95087731974951
C            8.72584874571983        5.29531370021333       -4.64498657362204
O            8.43860668726722        5.60169211521354       -3.49915209843173
C           10.16061558896946        8.90799550278988       -9.91896077572038
C           11.08837201718505       12.21850269484518      -11.51940722563352
O           11.37690375026486       13.35780241373496      -11.19379580637723
N           11.03624999561512       11.83538484458701      -12.86541938524346
C           11.34780883466015       12.83549621365263      -13.86877377067517
C           10.29451823868481       13.92773402543508      -13.91514196469587
C           10.59613004377797       15.01354868361895      -14.94461279457395
C            9.54729741073772       16.12405778626220      -14.95983568585839
C            9.84309728434453       17.21344915404751      -15.98964937009179
C            8.80302501139641       18.33322581767100      -15.98760243568485
C            9.08467638484444       19.41595426052171      -17.03010104470230
C            8.05044797319907       20.53019111076071      -17.01520239933115
C           10.67209068103253       10.55455548761050      -13.30021344381394
O           10.59912711051743       10.28751937807441      -14.48782229798917
H            1.32836994905628       -1.43733474669827        0.99569447713885
H            1.00797915574718       -0.99485464561192       -0.67824767097003
H            1.12668649980283        0.25414401158554        0.55051042130136
H            3.45089297513281       -1.55004664167521       -0.34040414896863
H            3.56875354229956       -0.31353951247813        0.88003844603712
H            2.96051969603672        1.43426693593524       -0.83157247373804
H            2.84229445640994        0.19928128018267       -2.05229149160149
H            5.26767907158647       -0.38934211580779       -1.69672473959095
H            5.38701628612655        0.83610141338069       -0.46653992688862
H            4.78663901015887        2.60149341253365       -2.16615822902439
H            4.67108965106364        1.37661133182057       -3.39782808313531
H            7.09412680969822        0.78366589417622       -3.04029786309609
H            7.21004417292261        1.99753951242339       -1.79750483147840
H            6.62751726367062        3.78303159275257       -3.48406767629604
H            6.51503977442244        2.56932625037145       -4.72971668383995
H            8.93682670490577        1.99017538301267       -4.38945138615204
H            9.04249470800421        3.21126227751836       -3.12495610871712
H            9.88330107011839        3.16785333670235       -8.84583368582845
H           10.25000909070787        4.86454399579565      -10.56770142448044
H           10.70653916967336        5.48709329497646      -13.49422155107510
H            9.85516718681717        3.21222816060937      -13.91320752575576
H            8.04442734861238        2.70038700169598       -9.89640756914266
H            8.11061508412497        0.98959124473765       -8.13813049899536
H            7.77494380635311       -1.39034522114571       -8.70472001711765
H            7.48592764796360       -2.08532430762213      -11.05584299683582
H            7.31595119751065       -2.22249532650929      -13.74344736011482
H            7.33235407549830       -1.78673897598834      -16.17234907771390
H            7.58106272188125        0.50152412790297      -17.02891517460523
H            7.81687098689827        2.40383791614707      -15.47362345453181
H            6.52572228002330        3.98140293234210      -11.38284323585272
H            7.37370709993534        6.24950673879798      -10.95089778978146
H            9.88731432423154        8.06755732147654      -13.69849527656222
H           11.15105283472536       12.50805971699173       -8.90380494797414
H            9.50562751611427       12.69153539356737       -6.86253949244569
H            9.80515831207492       13.28353683389886       -4.49172264737216
H           10.61175990449269        9.19286488059029       -2.59277921529220
H           10.36307383984015        7.98758146772783       -0.45980619078930
H           10.66692777270751        9.15827955229796        1.67927872426567
H           11.21706282048581       11.56358543779105        1.72438955917099
H           11.76324341684884       14.11653062922237        1.15845304830223
H           12.20322965993721       16.30017427998597        0.09607958117161
H           12.22084457778942       16.51615339446685       -2.35043651419992
H           11.79668698125061       14.55582619970742       -3.78447369016159
H           12.46310621735373       10.00437970403656       -3.99773394731794
H           12.16280353789713        9.39973159440965       -6.36540977538585
H            9.19355050699024        9.65289034499007       -5.98911158132224
H            8.66527774355225        7.93194040265781       -4.33863306946451
H           11.43610784771893       12.33400099158327      -14.83830688159465
H           12.33144111310311       13.25368839001284      -13.63315407513482
H           10.20588133299834       14.37340524032390      -12.91682798722202
H            9.31559909932394       13.47759459065354      -14.11691263420289
H           10.67492437262450       14.56428177320974      -15.94170357008590
H           11.58486956742964       15.44365205022341      -14.74516133282957
H            9.47290386060462       16.57186948068403      -13.96160668576344
H            8.55770567071196       15.69304763798787      -15.15316005456108
H            9.90381714972722       16.76786902976539      -16.98981459486762
H           10.83848007144042       17.63485721894295      -15.80462766873150
H            8.75267824689844       18.78652295884401      -14.99022908554828
H            7.80593959850935       17.90943553206647      -16.15769568177689
H            9.13067352977782       18.95637375105231      -18.02601192244880
H           10.08766391591097       19.82916300267528      -16.86161854782160
H            7.04940249220042       20.14185093858237      -17.21047408138123
H            8.25870711516268       21.29401403660528      -17.76740830247658
H            8.01905996097669       21.02637682138027      -16.04367428543657
