152
 energy: -30.462752938646 gnorm: 0.000583103330 xtb: 6.5.0 (97a52f5)
C            1.25983011605891       -0.75503642726896       -0.20623899008853
C            2.77409086569442       -0.64058999179241       -0.13401362853442
C            3.24128882100367        0.38057444799251        0.90380833093191
C            4.76271461612652        0.50295782863334        0.98270817310720
C            5.22400344039357        1.52380306388491        2.02160022326769
C            6.74407247882065        1.65398049977951        2.10209084155686
C            7.19410475899583        2.67968311180639        3.13878528380083
C            8.70187799019720        2.83488140327376        3.22050704170670
N            9.07177277420852        3.82622335181701        4.21142761395271
C            9.53115820812246        3.37494067036491        5.45550227915346
O            9.64567244371203        2.18261272347558        5.69088159777571
C            9.86142137302793        4.38303583804032        6.45854621857727
C           10.34266929373310        4.00637335569500        7.69667213482097
C           10.68802751334125        4.94876060640224        8.63817637401936
C           10.57284379821820        6.32114292349616        8.39283987896892
C           11.02398879215667        7.33525366986138        9.33042350561711
C           11.90721442005856        7.05167272945271       10.41101898023070
C           12.67470086687328        5.79020504515350       10.52014569775057
C           12.60752246795286        5.00564431944700       11.67495799121326
C           13.29180708828422        3.82009226706830       11.75818340915870
C           14.08235393853080        3.37201122311427       10.69892011813414
N           14.75951283203312        2.11718579401612       10.77221894281447
C           14.18229362901086        1.02791066113137       11.50771470323898
C           14.98641415259253        0.16541769433471       12.24867434383226
C           14.43320687458600       -0.88328364755018       12.94729529135588
C           13.06828774196278       -1.09189911125817       12.91700900438568
C           12.25783212822599       -0.24790201633611       12.18331528658591
C           12.80807137581707        0.80188522682712       11.48422750589688
C           15.99488044459847        1.91478038903581       10.07020952218779
C           16.26029408081139        0.70421964658959        9.43470874897562
C           17.44289744270956        0.51075797454394        8.75821383691712
C           18.38324450340954        1.52082723555368        8.70534890623225
C           18.13673282530365        2.72577842151492        9.33361997414940
C           16.95483192783470        2.92205825931750       10.01067590034322
C           14.17604527478055        4.17008475396928        9.55827969832237
C           13.49070817337929        5.35435047569137        9.47109539895432
C           12.14203837352729        8.02980667237537       11.37850601928148
C           11.60044239746775        9.28845807477197       11.29577951208005
C           10.80707818633861        9.63318738983875       10.17868580838897
C           10.27855374926803       10.93837243692148       10.06895341946524
C            9.48974193695930       11.26103270102995        8.99356801638548
C            9.20233353694059       10.34846512311467        7.97809262957510
C            8.21354908945875       10.76701483323718        6.95742293997388
C            8.44539870223198       11.88555212562858        6.15185466808313
C            7.54428931223875       12.25203855842121        5.18551561921441
C            6.36708676877575       11.52803742624246        4.99108727583935
N            5.44804863830929       11.89230014162565        3.96071650094943
C            5.93048362633067       12.46452216846445        2.73575311986307
C            5.22394619984586       13.48179619869119        2.09908273446510
C            5.68489765725319       14.02589229097801        0.92202491354540
C            6.85764494995291       13.56354192948829        0.35774672331980
C            7.56788697435336       12.55265166678978        0.97505981508736
C            7.10971519725503       12.00703585265166        2.15236648945105
C            4.04182015896797       11.65808395331229        4.12476185709343
C            3.26130708880509       11.23875282507216        3.05021805210726
C            1.91253669155727       11.01488643982302        3.20685677086451
C            1.31732616879294       11.20675544573089        4.43822036016041
C            2.07701385690369       11.62521353590458        5.51303012992304
C            3.42598245490819       11.85000012141785        5.35913462224431
C            6.11994607268309       10.42954016830953        5.81529303939176
C            7.02120154687891       10.05777741400842        6.77932797462194
C            9.78836837679386        9.05147883805490        8.01570040852062
C            9.66133055162715        8.09615075430096        6.92826398820430
C            9.23630039363966        8.45074899484207        5.64336925271524
C            8.99763292358361        7.51101205092818        4.66691157082637
C            9.17694118294750        6.16529492259776        4.91813443149810
C            9.67213855717435        5.75562731570024        6.17733163670077
C            9.97219452654608        6.72827175033140        7.16901782927497
C            8.85811260084887        5.17395762222219        3.89531991056048
O            8.40697240213836        5.50306801069732        2.80969800093535
C           10.53974432418064        8.66983019061438        9.16947955645213
C           10.52813505389035       11.93335826413942       11.11086573778455
O           10.07380488186216       13.06217919080157       11.02286439599701
N           11.30724170180007       11.54380519310219       12.20742839439990
C           11.53370852163750       12.51383793590530       13.26277528041671
C           12.33998427102705       13.70465122239883       12.77508520544866
C           12.51960441217324       14.78401942133596       13.83949794481722
C           13.24966618824423       16.02008677485727       13.31753621590351
C           13.38462830632428       17.12070938238228       14.36891801019230
C           14.07579918316966       18.37522678236998       13.83578508688081
C           14.18439777365178       19.48791864759651       14.87912130434706
C           14.85441480565804       20.73963814371224       14.33666091989904
C           11.87632993193937       10.27137518095169       12.34337909483028
O           12.57608961620785        9.99070194208025       13.30235741083765
H            0.93844143391521       -1.48696314019309       -0.95030980560087
H            0.80388555805085        0.20124425593682       -0.46844853181855
H            0.84071600812907       -1.05808855045824        0.75481936950909
H            3.17996561409382       -0.36944727732316       -1.11737225326970
H            3.21656262662625       -1.61873594677340        0.09548118792409
H            2.84221259571793        0.11244863786839        1.88954511739623
H            2.80468934023628        1.36093331814045        0.67774983411736
H            5.16241591464516        0.77327358938012       -0.00207122554122
H            5.20050942090072       -0.47665954102526        1.20911746628652
H            4.82574266883438        1.25248206747157        3.00666531630635
H            4.78346462383189        2.50244723341152        1.79623234058533
H            7.14390430456390        1.92621668604622        1.11807182127742
H            7.18796601932610        0.67817308617174        2.33232237217981
H            6.80692199495960        2.40912562167552        4.12812240900322
H            6.75111667728666        3.65762207283308        2.91425298098260
H            9.11509376739564        3.14840839607983        2.25662465088455
H            9.18176595941307        1.88702322802107        3.48568009747204
H           10.45659420853349        2.95554026943201        7.90227431351155
H           11.04302695780070        4.61327704081241        9.59441669942804
H           11.99267164211569        5.33656372046962       12.49399624197793
H           13.23217703099474        3.22040277945165       12.64933872463667
H           16.04814437273414        0.33790567905999       12.27228536488570
H           15.06598594393061       -1.54206972114082       13.51911464184840
H           12.63623700400918       -1.91356715691811       13.46424814971900
H           11.19330955604972       -0.41326737892626       12.15534220333165
H           12.18408805129119        1.45355565740456       10.89788076054977
H           15.51918736497811       -0.07485024166382        9.47188465749252
H           17.63433967852645       -0.42933262179018        8.26735724109806
H           19.30853474590793        1.36879559704823        8.17434867476022
H           18.87165282351431        3.51301321006352        9.29517897178335
H           16.76184124142326        3.85358237961335       10.51327161247613
H           14.77571635118604        3.82877288132795        8.73308553838172
H           13.55857926418494        5.95749376798653        8.58219530580850
H           12.79047079109100        7.80859495307060       12.20772754540287
H            9.05558631297699       12.24453282570935        8.95792543865542
H            9.35406135954684       12.44594105445637        6.28879599733053
H            7.73176101808365       13.11207310596888        4.56700741587057
H            4.31478030413726       13.84150901302297        2.54809175942104
H            5.13017356925098       14.81437741506690        0.44042662976905
H            7.21745053938214       13.99024587500478       -0.56408373930499
H            8.48053765905334       12.18823330485091        0.53276638036902
H            7.65036383418881       11.20907308805157        2.63066779730354
H            3.73314248943079       11.08278445355701        2.09595921014964
H            1.32032594185528       10.68822366220012        2.36782205756622
H            0.26120726233909       11.03048050700933        4.56003590527414
H            1.61249363375822       11.77808598816602        6.47334242160526
H            4.02070366663205       12.18962557640860        6.18893769837554
H            5.21954809609882        9.86019532394535        5.66614371627136
H            6.82897511925244        9.20175684767971        7.40285721799854
H            9.09734095747768        9.48750049202044        5.40181770319329
H            8.64394214413925        7.80662916502120        3.69376403802726
H           12.04050719890134       12.00966132804946       14.09236379967502
H           10.55587755667871       12.83569185508444       13.63435284089239
H           11.83884496513255       14.12999599717451       11.89701235454714
H           13.31557340408936       13.36205655741768       12.41133562593093
H           13.05651718013746       14.36957234678786       14.70104674962322
H           11.53752737045620       15.07801223997358       14.22888628230561
H           12.72085438916253       16.41387441303029       12.44119358908159
H           14.24200112741480       15.73582141860247       12.94767266013317
H           13.93273458554840       16.73666610317051       15.23765339547864
H           12.39151964901497       17.38468595790598       14.75212106308859
H           13.53424879935230       18.74749525858268       12.95767212052459
H           15.07520000488579       18.11698767531550       13.46527801168506
H           14.73246576542987       19.11336196951435       15.75347534610919
H           13.18200331097731       19.72976071489865       15.25579942249767
H           15.86775142497371       20.52693648474872       13.99208605325012
H           14.92137238493010       21.52811025123224       15.08926690062246
H           14.30414612351884       21.14420873491704       13.48538560360594
