148
 energy: -30.124978817260 gnorm: 0.000714616293 xtb: 6.5.0 (97a52f5)
C            1.59593833641583        1.78424806657530        0.61035720372611
C            2.91632536862418        1.12588656692759        0.24360880763913
C            3.46654422029915        0.23921089942508        1.36140175255424
C            4.79347884996380       -0.42734836040468        0.99945383258156
C            5.33509216844565       -1.32135213747600        2.11389251268286
C            6.64949431325197       -2.00768127384741        1.74574485344825
C            7.16867491057998       -2.92373872660138        2.85066697378050
C            8.44765835314385       -3.65242862322343        2.47785985292753
N            8.87378375809215       -4.55013958272576        3.53457259993674
C            8.08019437569620       -5.67469801370178        3.79446090757688
O            7.06435384103583       -5.89338699112086        3.15456567567102
C            8.50917150485781       -6.57199958598233        4.86423577475845
C            7.77730829922324       -7.70268812468098        5.16043397155383
C            8.19243897933540       -8.57677516396635        6.14026845085966
C            9.36505350991389       -8.36965508842157        6.87088635581883
C            9.88269306699318       -9.33403833916628        7.82836056455445
C            9.44971861754865      -10.68767247494963        7.87034346542072
C            8.65329934228761      -11.31894666921271        6.79303722526146
C            9.11361128407934      -11.29417208943159        5.45616133782426
C            8.38205383530528      -11.83222369823176        4.43162351661526
C            7.15733475726356      -12.43372698310259        4.72389033396770
C            6.69353728202070      -12.48595818776219        6.05087696550289
C            7.44219352963612      -11.93747244046271        7.08448264921511
C            5.40116749996123      -13.13265898648825        6.02794745236439
C            4.49492551454925      -13.45473565888156        7.03672645998649
C            3.32388607106743      -14.08732965082588        6.69221926361906
C            3.04368552018179      -14.40486009964022        5.36142121558705
C            3.92716671648588      -14.09176760367814        4.35720075827727
C            5.11636765590505      -13.44486957974516        4.68827233638222
N            6.19360017104401      -13.01698386878456        3.88214116840423
C            6.27045285911720      -13.11788049285625        2.45074046082631
C            7.39605731041084      -13.65705458933911        1.83861696857992
C            7.47250468592606      -13.74226072005771        0.46652751930050
C            6.42705297008680      -13.28972092331760       -0.31405344522725
C            5.30376035604925      -12.75160215416959        0.28221711610175
C            5.22469249545384      -12.66600607643402        1.65407580684060
C            9.84945810218560      -11.50371022632129        8.92985357675281
C           10.70183209667448      -11.06394348939720        9.91038752691331
C           11.23526014256106       -9.75753814894168        9.83568836424235
C           12.14572309350461       -9.31404959318023       10.81979701713769
C           12.64721389038042       -8.03988214431961       10.75172055445867
C           12.30980675417562       -7.15830998570324        9.72360630938131
C           12.81400178628197       -5.77031788813388        9.84538737458248
C           11.91280825515479       -4.68534130788702        9.94557697839394
C           12.35099384693855       -3.39241921743259       10.05129594756079
C           13.72475787314534       -3.14707425540238       10.07226612245549
C           14.63537507780154       -4.21534254943943        9.98328228995435
C           14.18242371219175       -5.52409569840477        9.87968952871704
C           15.96493008472378       -3.64923998630047       10.00690986974792
C           17.23222847266000       -4.22721637019531        9.95547116551442
C           18.33330330971314       -3.40578462754918       10.01062023253962
C           18.19105531272974       -2.02073254249041       10.11882998660107
C           16.94808369243285       -1.43797462827484       10.16876943790206
C           15.82106212539635       -2.25550990511766       10.10656649758096
N           14.44503529957228       -1.94165788870406       10.14830219293157
C           13.88226848802861       -0.62324010330657       10.24645968395773
C           12.92103981339429       -0.33524314300663       11.20848960071607
C           12.37852369283280        0.92694447615385       11.29882708585276
C           12.78738363587444        1.91908384374765       10.42967160543355
C           13.74130620151378        1.64538069184159        9.46940834497984
C           14.28571850108158        0.38408960236164        9.37765888293021
C           11.45658315383907       -7.59783911909613        8.67513469414567
C           11.16923985923670       -6.79349805554809        7.49684306227967
C           11.91888784128238       -5.67144889572297        7.13439201042926
C           11.55648552864050       -4.85502206312893        6.08550604950575
C           10.42791550625617       -5.11962991101876        5.33798366993936
C            9.66900325255030       -6.27907259194691        5.61805969597837
C           10.07043994748466       -7.15104867981236        6.66535181298638
C           10.02328035192396       -4.21666380195077        4.26252481716723
O           10.65819795300216       -3.20554077373471        4.01092315386930
C           10.85736769457969       -8.89192243590858        8.77506354401726
C           12.52847231633144      -10.18773080444271       11.92911533482359
O           13.31883849084032       -9.81440479177902       12.77961313183573
N           11.95829980582725      -11.46575452263884       11.97440786127231
C           12.31942682924612      -12.33294558304889       13.08019024395010
C           13.78537150083180      -12.72613692285929       13.03098084991186
C           14.22596718768606      -13.55966242253264       14.23146086395887
C           15.71681965657083      -13.89270727729328       14.20927708833623
C           16.16894233163727      -14.69035503781166       15.43167122158832
C           17.66490296036330      -15.00344703515279       15.42150138702204
C           18.12131518030980      -15.78549214393411       16.65394244272525
C           19.60953191713838      -16.09547305112521       16.63765678552366
C           11.08005687359613      -11.96124184158226       11.00300801057618
O           10.64540453716481      -13.09898585804046       11.06364306293842
H            1.21309416066995        2.41360135444819       -0.19585562548864
H            1.70097376797418        2.41275130993388        1.49634125579974
H            0.83167800052202        1.03804574882732        0.83432512121923
H            3.66150862115297        1.89024892418726       -0.01249059563295
H            2.79919981550604        0.52714558217787       -0.66908049628315
H            2.72736224199460       -0.52910768389378        1.61843346143343
H            3.58972470090183        0.83236438918231        2.27555138198871
H            5.53591384205550        0.33953355449127        0.74806165979398
H            4.67073727515933       -1.01660685220094        0.08277087809328
H            4.58619325445308       -2.07966691857623        2.37222960773894
H            5.47033543157766       -0.73155919991487        3.02838236098941
H            7.40774443395810       -1.25360244652250        1.50369100251369
H            6.51586342409496       -2.58621111736942        0.82391396278250
H            6.40428978639375       -3.66755938284080        3.10677648389883
H            7.33243101317583       -2.35137382892105        3.77108783658449
H            9.25943702233173       -2.94571778740096        2.27606353328143
H            8.30581187181236       -4.24627032145400        1.56949808824026
H            6.88249734281679       -7.89604927834428        4.59344810147121
H            7.58556965664595       -9.43725548479482        6.35039182726461
H           10.05722251655812      -10.81907137571006        5.25061690570004
H            8.72439957609023      -11.78413180328070        3.41374190164652
H            7.07519498583708      -11.96569533428511        8.09359672015892
H            4.72092079688991      -13.20955353628154        8.05934215626982
H            2.61271160057931      -14.34443536365566        7.45976781040648
H            2.12026597129242      -14.90484783541736        5.11965488873105
H            3.72241853572905      -14.34176607266921        3.33179317881897
H            8.20063178258292      -14.01743103440960        2.45541093693490
H            8.34870782675445      -14.16308355678397        0.00120859527643
H            6.48867529382899      -13.35512046119704       -1.38794940422363
H            4.48973579476269      -12.39411526959079       -0.32681744995598
H            4.36108651250452      -12.23231827296786        2.12707970971597
H            9.50218692252806      -12.52075429705173        8.97516756128749
H           13.30275595134651       -7.70825009546661       11.53746584768666
H           10.85748027374088       -4.89548495719563        9.92507643333097
H           11.66086622749391       -2.56997819534169       10.10549207700068
H           14.88225693186919       -6.33581735408242        9.80769629166547
H           17.33208898170676       -5.29524521907562        9.87624878434111
H           19.32035076773599       -3.83630336937728        9.97281853187099
H           19.07091083730419       -1.40040710463372       10.16556075590736
H           16.83126461820383       -0.37337025152004       10.26253500775999
H           12.61827151541512       -1.11155928812016       11.88915817223619
H           11.63528563993836        1.14079507689998       12.04928883188190
H           12.36136609477519        2.90642627804098       10.50020213540032
H           14.05759117227579        2.41867732837693        8.78874513605252
H           15.01768072992985        0.15686233215018        8.62252877023941
H           12.81319819206869       -5.43616434193459        7.67940850216430
H           12.13769327250091       -3.98180228402232        5.84195922608167
H           11.67345642586981      -13.21676026524156       13.05180665909266
H           12.09269641690832      -11.80024098148917       14.00898794986974
H           14.39003761850357      -11.81288605903569       12.97206109917734
H           13.98747417317874      -13.26561843806754       12.09840479229872
H           13.63820155099551      -14.48421193996347       14.27626703549803
H           13.98506227352776      -13.02217372171335       15.15646308315333
H           16.29796357840825      -12.96517975251595       14.14141165454614
H           15.95771565609372      -14.44769957823538       13.29476451024843
H           15.59637131842480      -15.62341221938835       15.49591325428570
H           15.91605006699861      -14.13748217138481       16.34440802325136
H           18.23552943683882      -14.06990322789854       15.34646939450094
H           17.91754514879420      -15.56490473358772       14.51397774672097
H           17.54248520846376      -16.71528329132827       16.72781689701592
H           17.86365002521443      -15.21865560773570       17.55807846903874
H           19.87913650097471      -16.69122216858930       15.76398697875332
H           19.92278387235347      -16.65221354156256       17.52343548275748
H           20.20287947524399      -15.18047107332659       16.59810347260307
