148
 energy: -26.706137690517 gnorm: 0.000718213179 xtb: 6.5.0 (97a52f5)
C            1.83551614068219       -1.98040694293356        1.35503893413916
C            3.05660559601839       -1.12608449420623        1.05447242772228
C            3.26284596268728       -0.89426913674836       -0.44289132875956
C            4.48782336458537       -0.03466140660778       -0.75305629165053
C            4.69184877826924        0.19502844647987       -2.24979185199127
C            5.91403586971892        1.05696181360389       -2.56108592447711
C            6.11294091283308        1.28634474322836       -4.05678044540451
C            7.31624227738519        2.15478616373213       -4.37549512168631
N            7.45702500550729        2.35638849927103       -5.80452575299163
C            8.46691088939076        1.65125068230901       -6.46951213965290
O            9.21520894556169        0.89900738850060       -5.86692148459426
C            8.59259035885394        1.85697944760080       -7.90917436027404
C            9.59914078408075        1.23014004836422       -8.62130221081411
C            9.73564863219844        1.43036035579101       -9.97939384104159
C            8.85452558077581        2.26309236967009      -10.67218595968218
C            8.99129134772577        2.57662695717690      -12.09016275034721
C            9.64535720154082        1.75325668120495      -13.03917822530863
C           10.10555225861910        0.38116931632329      -12.73610625431116
C            9.22316228745432       -0.55849539185392      -12.15546611098742
C            9.61885606623572       -1.83601051117168      -11.86264368167069
C           10.92692112026208       -2.21969141484150      -12.16056024175262
C           11.81642903340128       -1.30111163838140      -12.74652202084769
C           11.40572056451490       -0.00688800845959      -13.04030777433784
C           13.08169585858531       -1.97902972516977      -12.91569702277937
C           14.30238219621860       -1.56850957048980      -13.44877686617026
C           15.34091393659878       -2.46867506488851      -13.48541925859732
C           15.18117375265764       -3.76963149315171      -13.00348476476637
C           13.98380985738270       -4.18736778775212      -12.47548660043767
C           12.92267289223837       -3.28530710980755      -12.42396851616829
N           11.59843224870181       -3.43870585031935      -11.95883655435362
C           11.03838682456409       -4.62831994146933      -11.37912469113076
C            9.83265042070748       -5.14093458213093      -11.84382561440881
C            9.29437478580109       -6.27813207883390      -11.28463487720057
C            9.95156708587774       -6.91975366897559      -10.25348158117435
C           11.15000632081469       -6.42047079050674       -9.78297638470262
C           11.69038044928194       -5.28362212726439      -10.34091187291377
C            9.78224113865069        2.23198652050966      -14.34650915619789
C            9.28253360419827        3.45360453122301      -14.74136473156238
C            8.61313385321022        4.27693156140273      -13.80152092204770
C            8.06053507993565        5.53268981885677      -14.19284055023003
C            7.47004695686111        6.45865764287594      -13.33830195984221
C            7.55937598661660        6.57312274344978      -11.98287272636362
C            8.46707509836070        6.05264495156621      -11.09646669309444
C            8.51221789975050        6.18225593540093       -9.76810770271171
C            7.73852431283611        6.81192437034430       -8.91154166540158
C            6.70400962042930        7.66930239995833       -8.99476201564304
C            6.34553781277909        8.76947999121592       -9.75260664696408
C            5.09378339668698        9.30063857781324       -9.67325734755796
C            7.35115683631809        9.32231459614781      -10.59325295616320
C            8.65355811402833        9.53191835377743      -10.40074525731087
C            9.34485183570203        9.38422566672596       -9.29429021439311
C           10.63845608051669        9.65115350214291       -9.13394233893987
C           11.33914746982373        9.47379962860443       -8.03854154773229
C           12.61751772848315        9.77026852472288       -7.83239282684594
C           13.42981016736080       10.45780446354128       -8.61820528090116
C           13.08280127014822       11.24680722479047       -9.64249752007854
C           12.31750985047928       12.35906976983863       -9.53743028427813
N           11.82384712333495       12.81661718404727       -8.39405174767275
C           11.08868466357165       13.87486162097143       -8.22346191357321
C           10.56037471932224       14.36053686352501       -7.10344520626511
C            9.83574556526276       15.41207010597927       -6.99059655987459
C            8.01579062660686       12.87486304399269       -9.75915552755498
C            8.77123756182103       13.32768314638771      -10.73719833457065
C            9.37504484258987       12.61243389432414      -11.66007862379352
C            5.76280296348703        4.16029376135873       -8.51831855003108
C            6.64709713445745        3.37203830588743       -7.88794139629932
C            7.68991247230877        2.71202071446629       -8.58955861301628
C            7.86178923696699        2.88157825300953       -9.94096085140245
C            6.53129595583246        3.19395831183839       -6.44004812089343
O            5.65571614530266        3.75768732696380       -5.80362523536735
C            8.48041380760753        3.77754115564113      -12.53241932787776
C            8.07319010179323        5.88622823533204      -15.61997442726838
O            7.53526310027325        6.90629205671810      -16.01761034012012
N            8.74075456241781        5.03936684627495      -16.51348783504777
C            8.83355390688452        5.45239234313007      -17.90034169966452
C            9.86031906431773        6.55537381133515      -18.07977208765271
C           10.00427779916485        7.01359021634962      -19.52861546192560
C           11.02646811760745        8.13597729111016      -19.69878295630802
C           11.18275602484884        8.58722063630256      -21.15045124705294
C           12.19852017374620        9.71666224535588      -21.31813957430318
C           12.36351648663751       10.16420674136927      -22.77123394964920
C           13.37122402654156       11.29152042605351      -22.92890145100555
C            9.40078774491269        3.86603201554708      -16.13722252282627
O           10.03106662029646        3.20356606823173      -16.94419316712648
H            1.69873639266191       -2.13848233272524        2.42692089155695
H            1.91584573551283       -2.96257485605901        0.88605855831574
H            0.92498431615355       -1.51554500002012        0.97308744568633
H            3.95677007110025       -1.59179172359015        1.47639158516819
H            2.97403323167705       -0.15674897987413        1.56315854306480
H            2.36748150570184       -0.42628010721301       -0.86957417883917
H            3.35106476006409       -1.85943505395716       -0.95612063495598
H            5.38367781052979       -0.50200155548108       -0.32690190897665
H            4.39942774278147        0.93119420443103       -0.24130051247588
H            3.79553823443139        0.66094430814416       -2.67649936088053
H            4.78246406505643       -0.77035282788085       -2.76195830147247
H            6.81228908245332        0.59209184130018       -2.13764319942827
H            5.82365095696263        2.02311799883703       -2.05050874696582
H            5.21806707960050        1.75205793911800       -4.48722246260728
H            6.21488461917791        0.32584134538238       -4.57528184429277
H            8.23905779014908        1.70037644086051       -3.99982196601088
H            7.22481658279628        3.13657442642020       -3.90064728664171
H           10.28089300911845        0.58973905024071       -8.08814112292866
H           10.54942082666321        0.96550393109739      -10.50565735388636
H            8.21712910492793       -0.24538774901582      -11.93594573140573
H            8.94749837884214       -2.53836282627130      -11.40263512633939
H           12.09145828144893        0.69066099457585      -13.48413423941803
H           14.41467696620266       -0.56640947873173      -13.82307283172408
H           16.29118792162404       -2.16787363992604      -13.89468389707982
H           16.01016851941626       -4.45652090025801      -13.04920714563102
H           13.85038584345310       -5.19085016962477      -12.11349998107683
H            9.33450993940229       -4.64188277849614      -12.65648827241647
H            8.35997935900436       -6.66858100029491      -11.65315899886416
H            9.52902697969325       -7.80921267538106       -9.81571677059038
H           11.66136147265020       -6.91917829800452       -8.97603357157387
H           12.61558368991848       -4.87829338654867       -9.97038784811590
H           10.25977047767669        1.61506147949436      -15.08665281135217
H            6.91992284953060        7.24416290865886      -13.83345979502526
H           13.40614127856136        8.75844463998327      -10.01074972020571
H            6.77442336811702        3.64299166705071      -16.58513913941584
H            4.79919547988790       10.13942118091841      -10.23024099139670
H            9.02231616030727        4.41529517534999       -6.29071939603444
H           14.17704881338948       11.63186791335981       -7.10683690003819
H           15.17371830945661        9.86173450600367       -8.82308671431747
H           15.32103306043824       13.26594733619541       -9.57462161249560
H           12.10128949315290       12.89688342248697      -10.44743943810531
H            5.74325643501076        5.78756142968882       -5.37841414401543
H           10.96407387954723        7.31064341792287      -11.06858277125986
H            9.14434691937420        8.80961463843154      -13.56822680413344
H            5.98180652387321        8.02860017204789      -16.73892202091021
H            9.96446284688224       13.03877605325728      -12.41760642213002
H            4.98999672621219        4.65153238209242       -8.00531485386607
H            7.84276841002970        5.78434546906329      -18.22571838160927
H            9.09307418968728        4.57523744462405      -18.50230544632051
H           10.82789575791057        6.21067278182357      -17.69650453540810
H            9.58404227342960        7.40393395648593      -17.44239528440472
H            9.02951190887051        7.34139792160946      -19.90902601258262
H           10.28463014799086        6.16024104395701      -20.15754848934126
H           11.99803612070877        7.81103421126686      -19.30765895352928
H           10.74004720427527        8.99149559135901      -19.07541902849226
H           10.20967304473598        8.90509697539111      -21.54384008222344
H           11.47582799420949        7.73269930379737      -21.77220351602611
H           13.16968354330817        9.40061667862229      -20.91835975071201
H           11.90185341760378       10.57282593146771      -20.70024939291422
H           11.38731918203471       10.47173662665758      -23.16842512032570
H           12.66064505912367        9.30335775171683      -23.38435833639458
H           13.07355294869766       12.17022454325398      -22.35410692062038
H           13.48025757101013       11.60188981627286      -23.97025883602207
H           14.35778805910920       10.99223093539294      -22.57077801970241
