51
 energy: -10.890375590688 gnorm: 0.000164283016 xtb: 6.5.0 (97a52f5)
C            0.67468273155099        0.08462295842225        0.64779273286070
C           -0.00695460721863       -1.05763506249995        0.45338426881247
C           -1.41518801165220       -1.12255785944711        0.06058278056607
C           -2.22072292763461       -2.08915669210992        0.66861341333779
C           -3.57023333038326       -2.16200196670916        0.41897751025953
C           -4.15959670329916       -1.26629083851374       -0.45262559415795
C           -3.39182428741854       -0.32103827819421       -1.08849114592627
C           -2.01111804514445       -0.23631760310148       -0.87943588806015
C           -1.26585840197212        0.74174423189907       -1.65838447454870
C            0.02573637499629        0.62074284969597       -2.03476167170056
C            0.82125247309538        1.62856007431715       -2.71745626931855
C            1.80378499301907        1.21412220708628       -3.66089149757896
C            2.02826152896395       -0.15211508642965       -3.97028171832151
C            2.97532693060956       -0.52849467889413       -4.87180250731585
C            3.75473842920741        0.43255988052470       -5.53208456557002
C            3.56634171505186        1.75381837728054       -5.28298357795732
C            2.58890444313826        2.18629501408248       -4.34787958187569
C            2.38744160057914        3.53989231722512       -4.09578747254613
C            1.45765789873218        3.97286199666607       -3.15482458900084
C            1.29232938179274        5.35670154282456       -2.88016538581227
C            0.43793764970734        5.77803146657427       -1.91311965350908
C           -0.28666701359826        4.84454698418725       -1.15860582152849
C           -0.16490684482698        3.51209417391572       -1.40433246560054
C            0.68098574100842        3.01835471758359       -2.43109817888983
C            2.09825258667508        0.18535966891274        0.91342830343908
C            2.88632267416303       -0.89415044074301        1.29196930318508
C            4.23232860421085       -0.71144906835696        1.48814594201178
N            4.86737841230005        0.44032276623207        1.33975081995222
C            4.11224735149501        1.46436453119385        0.97563078897827
C            2.75995729432033        1.39691751663440        0.75563036659292
H            0.14208050503531        1.01178268744054        0.53441445737479
H            0.50160692549556       -1.99489446830270        0.59661985557685
H           -1.76871765486344       -2.77090417229065        1.36893014300278
H           -4.17100338156712       -2.90943790607101        0.91106942254712
H           -5.21976772814803       -1.31629516643848       -0.64057298591619
H           -3.85183225450006        0.35883716890162       -1.78536906240693
H           -1.81863188305791        1.59223910756123       -2.01933565717623
H            0.51599111580109       -0.30936159124776       -1.80572025082199
H            1.43129632150637       -0.90732903958890       -3.49210143319442
H            3.12975039065854       -1.57357885585603       -5.08541865623455
H            4.50237253436620        0.11720504123482       -6.24138439663731
H            4.16081768199003        2.49295157548306       -5.79192473052071
H            2.97765986954601        4.26643924482634       -4.62443318765682
H            1.86510155071768        6.07042133860486       -3.44704782932913
H            0.32423665428101        6.83076346828282       -1.71215020585490
H           -0.94010056876634        5.18997744303193       -0.37406105804950
H           -0.69583018608173        2.81897445973304       -0.77921806898220
H            2.44353294138178       -1.86334920680142        1.43816221261981
H            4.83970158608965       -1.55341121352729        1.78384006815678
H            4.62081525687572        2.40720463020545        0.84342160001983
H            2.21022168183314        2.26611975452067        0.43726559277591
