148
 energy: -25.954925685014 gnorm: 0.027142376604 xtb: 6.5.0 (97a52f5)
C            1.27801328213745       -2.27189248084788        0.05474659918715
C            2.77306720198687       -2.06169325053048       -0.12905173480121
C            3.10276251432334       -0.74343186950909       -0.83208491891041
C            4.60420068975275       -0.51474576591899       -1.00932852896207
C            4.92572246919606        0.81062235212508       -1.69936571227046
C            6.42570476873845        1.06365401675393       -1.84698820773065
C            6.73609010648962        2.39770982880175       -2.52180740634528
C            8.22184086867537        2.68712161956676       -2.62972375338541
N            8.46335084089255        3.96353315075405       -3.27337854657477
C            8.91745193064765        3.96001585593326       -4.59695167117024
O            9.10095653517901        2.91411802397681       -5.19395857079868
C            9.14821178405614        5.25113699012809       -5.23565099054292
C            9.60541794634448        5.31427564222384       -6.53850694795226
C            9.81254702339821        6.53028309509042       -7.15344381108993
C            9.56150722750317        7.72765639397898       -6.48492122359047
C            9.74908486621537        9.03931538882247       -7.09448892459112
C            9.72731414577106        9.26724561237182       -8.49203434784288
C            9.41630631183089        8.21826107351710       -9.38934031875228
C            8.77474341024493        8.20906506973259      -10.58561153726368
C            8.56961178091252        7.05337336926690      -11.29349097870722
C            9.05404389221753        5.86236951197912      -10.85358108224637
C            9.04025345752284        4.58621784374653      -11.36414209218483
C            8.34338312722960        4.19994111602675      -12.45135200751210
C            9.81469418161426        3.67321705479947      -10.61016627016748
C           10.84233060046369        3.83646382190420       -9.77319987225454
C           11.70837157496558        4.81335024309778       -9.62850575763540
C           11.86083016990225        5.90252761407793      -10.39353136269582
N           12.53111116780118        6.99159245890098      -10.24201117801577
C           13.23706767904361        7.40037549061794       -9.22838906713362
C           13.90659021395427        8.54449137337081       -9.30013369153806
C           14.62170135706888        9.01433452501343       -8.27425898076442
C           15.75431770683702        9.74388130650920       -8.34130213812384
C           16.43173640506472       10.05453635914310       -9.50538709452471
C           16.05656629781205        9.67435501385530      -10.72932743681025
C           12.96707400915091       10.60065480621505       -3.49474159217157
C           13.18980481476471       11.22196148751470       -4.57392632979948
C            9.99479995976156       10.55080736468762       -8.97166361620900
C           10.24359367900264       11.60572621392464       -8.12222391492487
C           10.15776414490062       11.41633027890004       -6.71949180157933
C           10.36470661778983       12.51110286061783       -5.82608201470716
C           10.10501833905058       12.49735942453288       -4.46073970795085
C            9.35725823084042       11.64085281340540       -3.71103230706441
C            8.41574811019759       10.68083017660676       -4.00509517893474
C            7.34326876860230       10.70687688566356       -4.80384974206723
C            6.82206183250909       11.66942706208351       -5.57525030434602
C            7.31090808318639       12.93553731558839       -5.70218931282534
C            6.83894540556680       13.88406600362325       -6.50751174940460
C            7.32062778972653       15.10291851931926       -6.64758980487519
C           10.72310075663912       17.32517149454043       -1.32668878250634
C           10.26853411990056       18.34862773885233       -0.56054336182988
C            9.70388950039429       18.09162499450337        0.66566746743985
C            9.59033230029533       16.78367349709147        1.12243665976038
C           10.04762396684283       15.75297596959411        0.34456312955633
C           10.62375452941926       16.03516050410503       -0.89142174385501
C           11.13064025109845       15.08575084249487       -1.72621570574360
N           11.78124022173542       15.27297554664398       -2.80362926155623
C           12.93749593262855       14.72275889830691       -3.20457704536929
C           13.91605156888005       14.13719469407071       -2.43788368860065
C           14.36085128743317       14.20056945250424       -1.14043069130605
C           14.37200482081521       15.22520214578185       -0.24860823956896
C           13.93892944032625       16.42186599723070       -0.40986427023115
C           12.38624992617748       13.37422418787396        1.74793902004607
C           12.03486998915345       12.47407881063058        0.85485914937387
C           11.62095550567317       12.69879017711525       -0.36957307460396
C            8.17689956051366        7.53417102725471       -2.50001032958110
C            8.42600085015746        6.41385101258573       -3.18962644102547
C            8.90795253602380        6.45151851726227       -4.52478222237401
C            9.14404606296127        7.63929096632509       -5.17258618331472
C            8.17395792838584        5.12278237963870       -2.54870203094257
O            7.71868459031607        5.05660080776584       -1.41857903000954
C            9.93473355330797       10.13532400646751       -6.27988401100892
C           10.91836929963477       13.75638473745769       -6.37872580117249
O           11.27856652245737       14.66264479979787       -5.64654508155259
N           10.99303741214057       13.89764352600029       -7.76987395950371
C           11.41046156615628       15.17603421983707       -8.30568965720437
C           10.26656126671617       16.17231161526821       -8.29498183113142
C           10.66209396746406       17.55096382483099       -8.81344675506224
C            9.50830067739567       18.55198218085320       -8.77541965603596
C            9.90563652571631       19.94004967298202       -9.27388824732433
C            8.75371209952342       20.94359374624790       -9.21982954880020
C            9.14808737602414       22.33935829294283       -9.70305066484281
C            7.99558401280225       23.33098351852929       -9.63556914140799
C           10.60294609379667       12.90878603769850       -8.67640348794513
O           10.58504302633082       13.11680821209284       -9.87714475035413
H            1.05468334471903       -3.21505165952791        0.55794555538773
H            0.76008812354054       -2.28087925544238       -0.90573614602700
H            0.83757788051429       -1.46977780916848        0.64928795192665
H            3.20508579267725       -2.89487338520265       -0.69817049925969
H            3.28121405009756       -2.08956529370431        0.84350680782154
H            2.66859483053510        0.09162930458534       -0.26927154229699
H            2.60753781767874       -0.71352834991124       -1.81000622800418
H            5.04031926943638       -1.34407823511731       -1.57885315337631
H            5.09960531491906       -0.54974191231549       -0.03176409011429
H            4.46977776189730        1.63619286011720       -1.13970673835180
H            4.44844275206694        0.83933422781645       -2.68616745881840
H            6.88648073204960        0.24630572206441       -2.41423954517730
H            6.90332694381131        1.03207409785515       -0.86054097106291
H            6.25795059843284        3.21610939700688       -1.96987292306955
H            6.28917358341571        2.42717064525087       -3.52245753814265
H            8.73333568925269        1.90930187967349       -3.20610099664204
H            8.68564537285890        2.71424494099060       -1.63881778139079
H            9.79797780492517        4.39380226844070       -7.06041237634917
H           10.21380578352398        6.54921555579992       -8.14909217449313
H            8.40063224895469        9.14181010978510      -10.96402780051613
H            8.03320000396495        7.07476041026602      -12.22824515594789
H            7.75182631958570        4.85246331759806      -13.02004143505297
H            6.89528172353891        8.59136694230996       -6.79260190005144
H           15.48486747490087       -2.87444447581185      -17.87419829368521
H           17.78840509215019        7.64838244567055       -8.32355779143792
H           13.48168199364076       10.10168338095936      -10.52828108080670
H           16.18284213034563       10.06656066679500       -7.40752441013021
H           17.33080436234306       10.64742873477035       -9.41595783365919
H           16.59659774148195        9.93048827040078      -11.58998741021739
H           15.49369131983030        7.29944821889504      -10.02452600226791
H           12.75675181128902       12.16017028702956       -4.78713948887904
H           10.02614056736754       10.72689383441845      -10.03164727797607
H           10.51113229148238       13.33730174929167       -3.92000018745677
H            9.60117871538968       15.71136168574525       -4.66327032314807
H            5.95261853012550       11.41562780621806       -6.15960357606352
H            6.91569016027732       15.79622280343047       -7.32476717602034
H           10.36030578677563       19.35753143515721       -0.92414507651852
H            9.34792522974032       18.90440513015502        1.27682251039457
H            9.15620368463474       16.58553560766036        2.08826279644768
H            9.98688073840036       14.73280620395794        0.67747847802351
H           13.05388594657288       14.61976703978091       -4.27570486938658
H           12.24326604909197        9.44659301010342       -8.62929622056877
H           14.88554694555637       13.32108648014088       -0.80376765305337
H            8.94748062775261       11.12743720967413       -0.61045663105377
H            9.49595950627152       14.21384627850913       -2.00574996618923
H           11.53730767817305       13.66535514662558       -0.77863281611641
H            7.81101940424657        7.50675737093509       -1.51722198408824
H           11.79447414230279       15.02677070833386       -9.32050883510114
H           12.24735413271730       15.53426124634755       -7.69686908289588
H            9.87943989838515       16.25590499694349       -7.27306768409871
H            9.43552490115590       15.77000421170305       -8.88606051045029
H           11.04255416100021       17.46444415568400       -9.83814767213825
H           11.50453147283405       17.93682862854451       -8.22716836132195
H            9.12143867899894       18.62549512085626       -7.75193117980251
H            8.66975373150691       18.17005078589547       -9.36999612665115
H           10.28491221482234       19.86856153729224      -10.30031238942397
H           10.74999199669198       20.31685167984900       -8.68432775410710
H            8.36814730003297       21.00576398812451       -8.19515069204994
H            7.91276484121477       20.57029694198222       -9.81632236147518
H            9.53076192936450       22.27267282398034      -10.72966626486626
H            9.99487235728138       22.70487144559735       -9.10814149043632
H            7.15614155443959       23.00484577011397      -10.25136975116543
H            8.28854729299375       24.32472204028053       -9.98053412367549
H            7.62614909748770       23.43428466453332       -8.61391113719461
