122
 energy: -22.853199383735 gnorm: 0.000830409579 xtb: 6.5.0 (97a52f5)
C            3.37032478540973       -3.62769527211048        1.18463764923042
C            4.27231218681323       -2.42132805393069        0.96969214047969
C            4.50936167212485       -1.60726940173074        2.24478239348077
C            5.42731040478052       -0.40333557799437        2.02040079627284
C            5.70824427641814        0.40876511860063        3.28755374406640
C            6.69331216648265        1.55876025981965        3.04408020655536
C            7.25645267578030        2.18340350140545        4.33295681964819
C            8.63911504454120        2.80290584569271        4.13266875892516
N            9.34610773399502        3.07019307815253        5.40589344835108
C            9.42067775042634        4.37983335485230        5.90861191699970
C            8.70356927364239        5.43463438284796        5.32960366752342
C            8.88226730270892        6.72924517075099        5.74291258181922
C            9.79700399970883        7.01900574663667        6.73941958272635
C           10.48639930339197        6.00289374841245        7.34718972865308
C           10.27315935778986        4.66294612944147        6.99980803236507
C           10.92990392548055        3.58557834325327        7.73128836057783
C           11.51098656736396        3.81632875834628        9.00824294676322
C           12.60823892966889        3.09525860162221        9.46131802828925
N           13.50156871993282        2.47233876973855        9.87120115379095
C           10.89886529429603        4.66308032726248       10.03300590032933
C           11.56260985838802        4.90756117848656       11.23728449319379
C           10.97027669927697        5.62599227660972       12.24777706901968
C           11.67833216853949        5.77453626606753       13.57986210215586
F           11.05180025308632        4.99098374386235       14.47756722883662
F           12.95663195775487        5.37453634346699       13.44252095491944
F           11.62873104709373        7.06241788879636       13.96930482968126
C            9.69812691560100        6.13496632609976       12.07638274132904
C            9.01320148300491        5.89623210247207       10.90164426335892
C            7.61527660792784        6.43522110857974       10.67118793029903
F            7.19671639493545        7.07728276116265       11.77964313457106
F            7.65782287183451        7.28204310965615        9.62251800146269
F            6.80209867475860        5.39668878382650       10.39220379097759
C            9.59676460429410        5.15110040124232        9.90808866473293
C           10.84070338174027        2.24399627086050        7.16753387074012
C           11.41204133732944        1.13664348269017        7.79204075004825
C           11.14719033582186       -0.17496463873996        7.42386087973924
C           10.32444537693902       -0.41254292409605        6.29686303600811
C            9.83504123487414        0.70033378954075        5.61627971455655
C           10.02236330857149        2.00892716564037        6.03762859152693
C            9.95979073162470       -1.78659636638252        5.95814221679922
C            9.47359816447634       -2.13917945628266        4.69333401478060
C            9.15681541075665       -1.20259068465214        3.72048554481472
N            8.83338071250499       -0.43525711044379        2.90741561767027
C            9.14553966884058       -3.50470717875187        4.25773044952994
C            9.92403084632197       -4.62496587518940        4.56006328792507
C            9.49499465482514       -5.89017486782354        4.23376630971611
C           10.28772424954382       -7.07997688012684        4.73812541363142
F           11.59974704152836       -6.83965339780814        4.54230125264604
F           10.03455080228861       -7.21797463914783        6.05560086516862
F            9.90433882930881       -8.18442876624090        4.06784974535911
C            8.30004153761313       -6.06692028686942        3.55985687631552
C            7.54287978693196       -4.96955846482311        3.19854656204487
C            6.19205538242939       -5.09847044870521        2.52266783520545
F            6.26480293296994       -4.54295786306902        1.29862584098016
F            5.85350239163980       -6.39828164882427        2.43122531607963
F            5.29227419385168       -4.42929584232483        3.26936681179081
C            7.97272105875856       -3.71069629208304        3.52823844911765
C           10.08078303678216       -2.75853775744278        7.04791933495977
C            9.28222927309592       -3.90706386186843        7.12683299726363
C            9.47293444416623       -4.85277736431715        8.09986784827936
C           10.44212220456986       -4.65891458741573        9.06721973433340
C           11.17661891051988       -3.50199694883507        9.07823077648698
C           10.99406592613556       -2.51527842516352        8.10122331777087
N           11.61441947319912       -1.25698002304637        8.19810226490061
C           12.62378486473571       -1.00829806747744        9.24674250903695
C           12.00511276049010       -0.51460447447161       10.55265875880641
C           13.04034076766711        0.04943588528535       11.53119684396496
C           12.42424984113499        0.90763123947845       12.63929201434043
C           13.47315819607786        1.66104034985336       13.45869174382176
C           12.86795271909281        2.58228395020822       14.51823069643252
C           13.91785634120845        3.38871232233787       15.28675442556636
C           13.30725188179795        4.37107238969697       16.27495765867523
H            3.20008456074730       -4.17946986421641        0.25831318711664
H            2.39808017093679       -3.33197869432283        1.58000381781826
H            3.81379155730172       -4.32593426794855        1.89621117172723
H            3.85138625782235       -1.76798463591903        0.19539169776077
H            5.24044008418819       -2.75390584349850        0.57207141769231
H            4.93441930134875       -2.26013762723654        3.01605086452605
H            3.54977229037428       -1.27000095718391        2.65239895594076
H            4.99782066925266        0.25068918993643        1.25323867419134
H            6.37861394737154       -0.75114920047508        1.59960781648054
H            6.11842656233731       -0.26167275459102        4.05175261129464
H            4.77417401630362        0.79331437408344        3.71169612421014
H            6.24045844467982        2.32749446377442        2.40759053026831
H            7.52940073194783        1.16761065754809        2.45304716248127
H            7.32586859533486        1.41120370572682        5.10672859010285
H            6.56064513588830        2.92151202407486        4.74748962717847
H            8.57998316626339        3.71171702600637        3.53099102559566
H            9.27370459733353        2.13815119494619        3.53896150764570
H            7.97558815925070        5.23054356664055        4.56631889938904
H            8.31427340271572        7.52513033969594        5.28954293650632
H            9.94662033590152        8.03861131130453        7.05472773426422
H           11.19462032894232        6.23448279053981        8.12358071285677
H           12.54732164216629        4.50493016086062       11.39873198785091
H            9.23202608913986        6.70136708425166       12.86547178446423
H            9.01658154878122        4.93713085401266        9.02898804772754
H           12.05211420099842        1.29023102458362        8.63362963587764
H            9.23596120298713        0.55116988933217        4.74625033515329
H           10.85132208916419       -4.51007443232989        5.09314161666042
H            7.95252087667373       -7.06056879422631        3.32923072407266
H            7.36574191272244       -2.86765306060356        3.25152595638083
H            8.49705843420078       -4.05111305450124        6.40641400083405
H            8.88562103083292       -5.75679304578677        8.09751713070198
H           10.60298974673765       -5.41050960862449        9.82270641103356
H           11.88739657438240       -3.34570285882249        9.86832833706121
H           13.33674120706393       -0.27549242716627        8.85815844927211
H           13.22050276834537       -1.90967051454918        9.40457569060194
H           11.42273593080459       -1.31169354282037       11.02739110389517
H           11.26720454089305        0.26201985632921       10.32421276949589
H           13.75527744160147        0.66458890563051       10.97306832351060
H           13.64026340460192       -0.76031384061498       11.96141858363809
H           11.80316615341107        0.28743519230836       13.29504264745931
H           11.73495203848119        1.63357860418220       12.19206492636750
H           14.09951279744003        2.25408382697738       12.78117499198811
H           14.15684879768179        0.94757998853035       13.93231914389132
H           12.25922540245699        1.99925280340936       15.21857549931728
H           12.16671708163477        3.27446292536121       14.03862340340097
H           14.54239245725292        3.93451995672335       14.56756582908006
H           14.60006746610514        2.70204030420085       15.80246070012278
H           12.68937274951257        5.10814910641108       15.75896752886844
H           14.06884307965859        4.91911578153983       16.83252120071903
H           12.66741409771511        3.86169529190999       16.99621493784758
