255
 energy: -51.577565518544 gnorm: 0.000729182675 xtb: 6.5.0 (97a52f5)
C            1.73566176258857       -0.54888552661781        1.78345940937090
C            2.80018171051370       -0.31282410733274        0.72359607718984
C            3.55339689941082       -1.58939683559200        0.34640366397350
C            4.62500890750133       -1.35932310892032       -0.71917329483192
C            5.37550372513618       -2.63597017949968       -1.09714360620088
C            6.45305131432171       -2.40478338842092       -2.15593124982387
C            7.18711436568463       -3.68582954139528       -2.54724200162487
C            8.26607145971508       -3.45859117166216       -3.59692610129168
N            8.95839088848477       -4.70935670667548       -3.96920292654677
C            8.18673454558035       -5.82073687592870       -4.42136969429506
C            7.02803346058126       -5.63090082959460       -5.17271434489122
C            6.29691416500374       -6.70503693416313       -5.63469390157858
C            6.70967048203611       -7.99133607106827       -5.35927047016032
C            7.85666136926011       -8.19936532256411       -4.61517122970021
C            8.59351050299009       -7.13213209902855       -4.14205148898404
S           10.02545199536633       -7.46369926451319       -3.15825944237791
C           10.98162755688061       -6.01693810085354       -3.50925105342459
C           12.35155554109768       -6.10395298451229       -3.42666785626511
C           13.17605237791486       -4.99344271532444       -3.65087376242090
C           14.61342323270133       -5.14186635418902       -3.54375543830004
C           15.51287846299299       -4.14688140212124       -3.65597262672308
C           16.95043558391546       -4.29837501110262       -3.54396170306729
C           17.76923613510792       -3.16418815212142       -3.58575082071668
C           19.13302311206326       -3.26940585828593       -3.47247882974437
C           19.74328823966675       -4.51278064946216       -3.31467175984317
N           21.16463747857678       -4.62760386897694       -3.18592067649958
C           21.92301146780149       -3.59426379153026       -2.54501808637109
C           23.18801191403291       -3.24779323499175       -3.01750923639974
C           23.90724008770271       -2.23907221512383       -2.42735260469696
C           23.40018552582423       -1.53996465791942       -1.32633155712635
C           24.17621261554326       -0.46415133465736       -0.73973037000344
C           23.92684432519324        0.11548753526042        0.44945313068662
C           24.68238885720397        1.21778367270909        1.01212109173447
C           25.55964377140113        1.99281129953781        0.24951403852773
C           26.24824882150306        3.04057418441301        0.81287382144255
C           26.09973082340746        3.36030916915852        2.16383597469763
C           25.21222146378203        2.59542409788737        2.93609615709473
C           24.52445063381802        1.55071481877539        2.36407540579303
S           24.91546405389129        2.97023082149181        4.64027207550398
C           26.46061261708610        3.71771139891127        5.06992706360991
C           26.88558711692423        3.65063195232925        6.38166080265352
C           28.07497464147578        4.23994564203121        6.77016444507202
C           28.84863620090910        4.89910731999233        5.83843244620413
C           28.43680622016802        4.97058341552495        4.52421441374915
C           27.23836540658258        4.38733327306296        4.11605204288834
N           26.83211804665230        4.42819150642203        2.74862185050119
C           27.06079092814124        5.65968720888692        1.96502731778406
C           25.75466305809892        6.27384624403633        1.48265660871274
C           25.94965902666964        7.57249968069758        0.70282853168849
C           24.62952151891509        8.19210939997135        0.24588249507462
C           24.81467882022591        9.49537076840521       -0.53057054457702
C           23.49062593291940       10.11726747313674       -0.97411269256349
C           23.67070662668855       11.42103567385246       -1.75275109786959
C           22.34875594781078       12.03382955455681       -2.18727653172641
C           22.13545201812875       -1.90052646855937       -0.84747318619331
C           21.41408832899766       -2.90367216220868       -1.44585679464075
C           21.83676516070892       -5.78784319915234       -3.69582018951191
C           22.83667494316276       -6.41488364219371       -2.95219902874242
C           23.46074118959435       -7.54101868950281       -3.42449460702985
C           23.12878237061030       -8.07885732389959       -4.67448759222664
C           23.79935640683372       -9.26859610556419       -5.13823752089615
C           23.78923894516655       -9.74195819024169       -6.40380063268705
C           24.45752604007177      -10.93566626445354       -6.82421799524963
C           24.50282813047476      -11.28327803610081       -8.16975769798190
C           25.13743457828483      -12.43210880799653       -8.62815841978551
C           25.76118725593135      -13.33666747396837       -7.77610247303110
C           26.38956007607140      -14.51214602681915       -8.29716189406902
C           26.89874541760693      -15.50601649009304       -7.53630685524659
C           27.53181902756381      -16.70618580772367       -8.02544043124793
C           27.72155263806879      -17.79040688617043       -7.15916758841539
C           28.31100063400410      -18.94868598792355       -7.59690483969319
C           28.75857969441518      -19.06832019096454       -8.91270654012742
N           29.38514762470671      -20.27681175099915       -9.36782170530029
C           28.80735190985172      -21.54331973871954       -9.03262074901538
C           29.60469629946878      -22.66597344774261       -8.81540388962100
C           29.04179835219443      -23.87998368448219       -8.51035164891926
C           27.65390059380607      -24.02866950518563       -8.41013327242147
C           27.09442699807674      -25.33094821838301       -8.10375797583158
C           25.78297368222931      -25.63272017794904       -8.09469310062440
C           25.22150016686662      -26.93642839742311       -7.79878106721987
C           23.84304679165573      -27.13826067551506       -7.92984021141388
C           23.27745420216788      -28.36062345285836       -7.66697230545995
C           24.06142022071504      -29.43799782525432       -7.25628595961278
N           23.47214241788655      -30.71305354093553       -6.98559495684865
C           22.33224787647469      -31.15589979408296       -7.73845514085572
C           21.30731334464017      -31.87039010082901       -7.12365831633341
C           20.21811276303160      -32.30010955628341       -7.84795796199686
C           20.13248243237994      -32.02501920462172       -9.19899305988852
C           21.14154388275680      -31.31808230752207       -9.82356784561611
C           22.23173775779258      -30.88769461094810       -9.10132511472439
C           24.01847799168882      -31.55992818122997       -5.96276023230194
C           24.07011549679689      -32.94072572600363       -6.13524030395618
C           24.58924255603930      -33.75255145527353       -5.15186131517328
C           25.06561962392322      -33.20101563662951       -3.97834276747863
C           25.02009114632693      -31.83311775664810       -3.79161689114093
C           24.50113623315641      -31.01947531951872       -4.77351040393862
C           25.43489310734773      -29.24061041835392       -7.11792292687892
C           26.00389157409659      -28.01975583275744       -7.38312195497773
C           26.85887354802979      -22.89543174945069       -8.61573859129362
C           27.42495941770594      -21.68189483442452       -8.91744457669633
C           30.58402267040710      -20.20116081550515      -10.14733918773803
C           30.85694070677158      -21.13529744185385      -11.14541739391533
C           32.01787981100853      -21.06655747974519      -11.87434850796364
C           32.96162738273358      -20.06061605250334      -11.63782385779587
C           34.18650424866647      -20.03216900564829      -12.41353681125623
C           35.21673717251488      -19.19048681904284      -12.21059699960073
C           36.44877641574102      -19.16695857415601      -12.97464190918983
C           37.47412255659028      -18.29188999237584      -12.59925181173393
C           38.65740955465542      -18.24732542893173      -13.29270530446638
C           38.87108507962328      -19.07205610324590      -14.39637941975561
N           40.10594565674975      -19.02727762099200      -15.11700502964463
C           41.33452150811230      -18.74811566304066      -14.42776394807070
C           42.31989116951949      -17.96254508878982      -15.02014774276122
C           43.49996873193275      -17.70064715546414      -14.36103839082929
C           43.71809011528414      -18.21848043182275      -13.09907439676284
C           42.75069095238712      -19.00043183524285      -12.49842985742879
C           41.57006022109157      -19.26388694362292      -13.15579017322929
C           40.12593271682104      -19.26080822825199      -16.53365732274712
C           41.17167473356823      -19.96643279842547      -17.12318232229116
C           41.19428261499191      -20.18342140374217      -18.48257556907220
C           40.17389437226993      -19.69960659907303      -19.27818382803609
C           39.12995876538507      -18.99690071431372      -18.70850982117022
C           39.10548550564156      -18.77855152362994      -17.34940540681917
C           37.85057593897977      -19.94238549854746      -14.77802643421364
C           36.66676902911193      -19.99107525295486      -14.08452136973645
C           32.67560656168639      -19.11686347255492      -10.64478591904271
C           31.51225765576817      -19.18630991412165       -9.91966223645919
C           28.58769486128173      -17.98567837899829       -9.77583777554610
C           27.98041619166416      -16.83296493029994       -9.34669172130619
C           25.74368846718693      -13.04092434888539       -6.36280231208645
N           26.26802706590001      -13.75533530135968       -5.39191677097966
S           25.99171436308276      -12.97769525993446       -3.97017185015968
N           25.17764672081011      -11.68636022724556       -4.58014527275717
C           25.09967528211861      -11.82497256569225       -5.88498195365507
C           22.13191780046977       -7.43852520410500       -5.42231945476517
C           21.49664085868988       -6.32307216915856       -4.93850207630846
C           18.93334335879655       -5.64702880962346       -3.28300789674052
C           17.56891159497095       -5.54482146251043       -3.39316409520285
C           12.55885806413986       -3.78219895160422       -3.97277405891815
C           11.19000677439456       -3.68870058778127       -4.06427454283485
C           10.37065274651249       -4.79657197659878       -3.83545858256516
H            1.20239448444798        0.36886132060749        2.04166634372243
H            2.17374147898355       -0.94326068158036        2.70239681733288
H            0.99399155400760       -1.27443555338490        1.44370790426142
H            3.51819808343975        0.44250409973775        1.07056792462782
H            2.34687287654729        0.12064706750063       -0.17808338871268
H            2.84162901704264       -2.34691389703179       -0.00446523400777
H            4.01258558334170       -2.02460466505171        1.24265535282670
H            5.33779639497021       -0.60313125919675       -0.36789634846310
H            4.16602045455226       -0.92333031490441       -1.61507368924747
H            4.66330434225019       -3.38951164312721       -1.45514009629759
H            5.82888287531947       -3.07639862661669       -0.20069699717725
H            7.17413560619806       -1.66225306996044       -1.79308953362077
H            6.00237962660106       -1.95249362921612       -3.04780497037655
H            6.46614724889826       -4.42695246637942       -2.91054920181360
H            7.63801860835420       -4.14476543844610       -1.65924668153960
H            8.99846057659179       -2.74602648179492       -3.20928305139270
H            7.84969747739453       -3.00197755045587       -4.49868084462923
H            6.71450604098167       -4.63027263304461       -5.41131849994092
H            5.40463020868850       -6.53925228849406       -6.21612098634073
H            6.14112941277719       -8.83217404315426       -5.72149553108265
H            8.18551329682062       -9.20017147515740       -4.38916096825113
H           12.79654218140815       -7.04992286912550       -3.17151192967892
H           14.96910795586586       -6.13583519505635       -3.34430508201947
H           15.15574747297870       -3.14836354811140       -3.82841796719543
H           17.31381378860956       -2.19606074784152       -3.70622575680568
H           19.75119015943351       -2.38983242579096       -3.51553410231025
H           23.58502855183960       -3.77516382069761       -3.86721049417453
H           24.87887687177445       -1.97640544094750       -2.80957045785361
H           25.02829250920348       -0.13025174414727       -1.30366082746081
H           23.12530954079690       -0.27086946873551        1.05254293116593
H           25.68672421718221        1.77780938802113       -0.79655229521356
H           26.93112163791745        3.61472818435414        0.21246857932902
H           23.84608906239248        0.97948811894043        2.97345372413773
H           26.27272938736716        3.13371546845065        7.10137872026385
H           28.39688004829622        4.18101488751805        7.79697965968251
H           29.78040271239074        5.35190877938093        6.13599535093427
H           29.06380405513379        5.44887347687535        3.79258997655169
H           27.72454550078364        5.43277569835059        1.12673505727551
H           27.59476459526125        6.38432206971891        2.58488073099290
H           25.10203863930400        6.45252088433389        2.34562075280515
H           25.21161377193908        5.54911023375314        0.86505863770679
H           26.59278723445834        7.38813089445601       -0.16626554233639
H           26.50145647641648        8.29300238292956        1.31874441556937
H           23.98725852137909        8.37137978632043        1.11680592409146
H           24.07812002176470        7.47118467097020       -0.37003071905175
H           25.45004222009539        9.31570540327310       -1.40641985411616
H           25.37196253803118       10.21384034040256        0.08293325672844
H           22.85674376271524       10.29718465602348       -0.09715689582553
H           22.93218746193099        9.39755955898343       -1.58514393437360
H           24.30736530778126       11.23555823380134       -2.62809528136583
H           24.23486452293519       12.13534096037612       -1.13836572094357
H           21.78989521721809       11.35169709413867       -2.83086605439884
H           22.48957496828629       12.96555198762836       -2.73999079231628
H           21.71453402540406       12.25555577919664       -1.32675763033012
H           21.71298135039505       -1.37048952003038       -0.01247824570278
H           20.44391610890570       -3.17579724570757       -1.06831264569592
H           23.09675079754941       -6.00849530739555       -1.99035582390634
H           24.22342858113999       -8.02161460466585       -2.83593092423065
H           24.36467998271117       -9.81225664866378       -4.40507930681805
H           23.27285917387511       -9.18081860540658       -7.16140624859859
H           24.02958353469020      -10.62827956796190       -8.88109069961277
H           25.14148068940818      -12.64104515364750       -9.68423807553226
H           26.41915550149034      -14.61532754947396       -9.36675442096730
H           26.80960531645056      -15.41506942179164       -6.47024345220047
H           27.38612006294979      -17.70879281910268       -6.13942658841029
H           28.44948365835554      -19.77882592130637       -6.92632837653283
H           30.67378091537150      -22.56345115881589       -8.88023350376369
H           29.67140168067685      -24.73830352506996       -8.34888198431379
H           27.80271906371034      -26.10961805433211       -7.88854471656519
H           25.07702895343086      -24.86191597769904       -8.34341938066865
H           23.22280505209506      -26.31659992787725       -8.24500277404646
H           22.21494231550727      -28.50013953581043       -7.76326289537593
H           21.37651337309311      -32.07478399388905       -6.06948832538572
H           19.43079837423852      -32.85135734792052       -7.36014460474663
H           19.27949957676785      -32.36194298274585       -9.76518479120234
H           21.07638605158353      -31.10391263861160      -10.87790360305547
H           23.02690943862509      -30.34660805878082       -9.58383565864317
H           23.70469074981697      -33.36321884602241       -7.05492304677077
H           24.62455120692008      -34.81981387215740       -5.29817415530312
H           25.47156093167541      -33.83736742387531       -3.20896510163481
H           25.38946295024732      -31.40192562965933       -2.87543959220526
H           24.45209191975640      -29.95421462027659       -4.62962961108798
H           26.04795070003887      -30.06986786095759       -6.81098062974960
H           27.06531498223415      -27.89673973356443       -7.26395442400546
H           25.78962283448292      -22.97104884427539       -8.53231051299382
H           26.80419435563923      -20.81893659288083       -9.08397563891776
H           30.13576045299321      -21.90887644065815      -11.34330468432268
H           32.21578777633979      -21.79832819343350      -12.63888518455438
H           34.26579950842775      -20.76312628889145      -13.19690512075263
H           35.14822262159825      -18.47965497776321      -11.40790416419836
H           37.32535298192574      -17.64736674840366      -11.74976499674354
H           39.43408138782718      -17.56302536336747      -12.99917928399814
H           42.14056465837846      -17.55580390112200      -16.00006905225720
H           44.25442361295994      -17.09023668401443      -14.82998014051456
H           44.64226226193234      -18.01285394265850      -12.58401076382693
H           42.92031515059701      -19.40627617235060      -11.51443421195963
H           40.81698017389968      -19.88173561366048      -12.69858801374615
H           41.95946949668023      -20.34706183032888      -16.49679464056543
H           42.00914342485680      -20.73180576041753      -18.92639942370509
H           40.19278429446351      -19.86935549934639      -20.34236930228177
H           38.33440034751609      -18.61719169049863      -19.32870619432910
H           38.30135055806376      -18.22161257806960      -16.90099488992439
H           38.01225957175695      -20.58979183021869      -15.62209030460816
H           35.89762031425857      -20.67129017106381      -14.40332392375598
H           33.37234419736471      -18.32246929403757      -10.44623502681556
H           31.30716428080882      -18.46238080443869       -9.15047419722258
H           28.93224664701326      -18.07615146803554      -10.79128046636867
H           27.86634706276285      -16.00761623482470      -10.02683089625133
H           21.84454079275826       -7.84093599918066       -6.37743984566638
H           20.72912282938850       -5.83863156573885       -5.51666154241933
H           19.39729192605538       -6.60955565860601       -3.15633030286935
H           16.97088483977323       -6.43786586783841       -3.36610325876696
H           13.16034393612188       -2.91245556665316       -4.16713058036135
H           10.74012591099611       -2.75729444457496       -4.35920852172853
