27
 energy: -3.886852411273 gnorm: 0.000629682845 xtb: 6.5.0 (97a52f5)
C            0.84306762931610       -0.10774962081974       -0.01921548237810
C            2.36318443538229       -0.07822922741310       -0.03613296756694
C            2.92295822766294        1.15921753074897       -0.73938413369575
C            4.45116176366266        1.19717368923105       -0.76073372692176
C            5.00700546981624        2.43428148399212       -1.46593596052316
C            6.53475522997401        2.47464621193032       -1.48995315346262
C            7.08709310452639        3.70807559977181       -2.20302404926696
C            8.61010488228713        3.74722844664075       -2.22874261540009
O            9.12729983618619        4.89461161995663       -2.87073396691553
H            0.45432207760117       -0.99553846296318        0.48524647507238
H            0.43625538640496       -0.10191309521786       -1.03250603248723
H            0.43642253179491        0.76572838465202        0.49455410223061
H            2.75340070615895       -0.98107865629984       -0.52450298697802
H            2.75357493756379       -0.12083964488752        0.98937405781691
H            2.53870180971753        2.06439334647574       -0.25322316982816
H            2.53892261785924        1.20446039121620       -1.76594599554316
H            4.83576785773375        0.29195816266540       -1.24647957108036
H            4.83577703667669        1.15362427196871        0.26562849661664
H            4.62229784677805        3.33945241922302       -0.98026577446725
H            4.62144130749464        2.47745748476095       -2.49192201123888
H            6.92000372651682        1.56750931049517       -1.97155649329283
H            6.92131385892805        2.43744653246503       -0.46410654780123
H            6.71122479874805        4.61834799663184       -1.72198441898330
H            6.70305530334847        3.74753070868814       -3.22883439354815
H            9.01802975181604        2.85416269354497       -2.71843111166939
H            9.01121008037664        3.74306196690216       -1.20832704970989
H            8.77227778566829        4.95724045564022       -3.78688151897779
