223
 energy: -41.138979440087 gnorm: 0.000866968212 xtb: 6.5.0 (97a52f5)
C            1.05337218745225       -0.55876734953939       -0.47534272020419
C            2.56320075555437       -0.68702455591879       -0.35084101027394
C            3.16630033269594       -1.62711388270298       -1.39556425416134
C            4.68443894192773       -1.75852251986606       -1.27632115286054
C            5.29031959630929       -2.68681168308508       -2.32876662203351
C            6.80902478431273       -2.80865878536031       -2.21149951061630
C            7.42328913784022       -3.71169136173142       -3.27939633267411
C            8.93783002197124       -3.80887946409757       -3.17003335235543
O            9.49925815343070       -4.62170302869486       -4.19484809859280
C           10.90054864913435       -4.63409819547111       -4.23070098740019
C           11.51775472465911       -5.28632477610151       -5.30138988270922
C           12.88483027362988       -5.31854128896625       -5.42313251267993
C           13.70029530813171       -4.69495615063038       -4.48208861677225
N           15.13308277832717       -4.70646822401624       -4.61498945253324
C           15.74947215744468       -4.64269825651951       -5.91181413888759
C           17.01898674218081       -5.17391325464615       -6.12273514099934
C           17.61079455355719       -5.11849717997638       -7.35926902483903
C           16.96496391271862       -4.52235848136806       -8.44493273408879
O           17.63696633400976       -4.52535991534963       -9.67442567697637
C           16.89030256458667       -4.00974518044042      -10.77041299294414
C           17.64539415636940       -4.15760174395600      -12.08313743944765
C           16.86920965471275       -3.62570152861485      -13.28552788449281
C           17.62491281510850       -3.79665893900276      -14.60262979763966
C           16.85159206313543       -3.26740377547685      -15.80956319904155
C           17.60359345308120       -3.45210541489284      -17.12731923985079
C           16.83267970855955       -2.92129546457320      -18.33641445958279
C           17.58361755385303       -3.11485323148128      -19.64415862939159
C           15.70189791278475       -3.96607169089387       -8.22481100588752
C           15.11328584513290       -4.02259865646436       -6.98479664473901
C           15.96248051724976       -4.77713483302639       -3.43303802715239
C           16.22872199241363       -3.63492101199428       -2.67287260525732
C           17.01404799234229       -3.70321559374075       -1.55149451478281
C           17.59678914107478       -4.91284183364068       -1.14792554310583
C           18.42404182901004       -5.00121535779945        0.05360135382854
C           18.26884827531228       -4.11646081869944        1.11491209061938
C           19.02205200780357       -4.19617604321055        2.27733167879112
C           20.01284151332899       -5.16072407375086        2.47571905220879
C           20.78783771541209       -5.22359243463185        3.67122774823202
C           20.44161462025633       -4.80675631330287        4.95146561335967
C           19.05313776862913       -4.43953356266812        5.31139579651179
C           17.98329972969424       -5.27404375462312        4.98106190536348
C           16.69217832427631       -4.92729555078485        5.30857776257817
C           16.44013091500251       -3.74356666868265        5.97410258578860
C           17.48507000842882       -2.90558969460527        6.31095403804312
C           18.77746731332171       -3.24710948200072        5.98352903030794
C           21.51775829582662       -4.78121144125289        5.95565469770941
C           21.23041261935958       -4.50962885039075        7.38206063714329
C           20.22208846705771       -5.20092617348782        8.05651610175560
C           19.96051818968416       -4.94783942975227        9.38384127164221
C           20.69955898187477       -4.00250042614352       10.06771853668487
C           21.70195544325592       -3.30868309685884        9.41861215039964
C           21.96544795950866       -3.55701784457356        8.09076877888044
C           22.81424637033503       -4.96619395176650        5.48974003126730
C           24.00953411530874       -5.15729397999917        6.24795724683524
C           24.01350488867100       -5.80941062926413        7.48341843573000
C           25.16917319734705       -6.00546879120856        8.22589677180671
C           26.41694538753909       -5.54828661666206        7.81595559444273
C           27.61141696254752       -5.73319307830753        8.63808037076884
C           27.72168929557364       -6.79513477947347        9.54692375664200
C           28.83871502711015       -6.94425609246249       10.32789401756572
C           29.88856050529946       -6.02600785262829       10.26136089037494
N           31.04246043065429       -6.16928865160123       11.09211827711487
C           31.61810313909313       -7.46681830509444       11.31027632471241
C           32.16833698671625       -7.81199647470142       12.54129367038973
C           32.75621514759374       -9.03851368009224       12.72599374931546
C           32.82514945488385       -9.97254348539917       11.68844050556041
O           33.46553828778516      -11.19109246870760       11.95273553907476
C           33.66991677540232      -12.01538633947360       10.81072623694226
C           34.50989298230583      -13.24206636802410       11.13398944849997
C           34.76587887836373      -14.12341016663722        9.91332470692851
C           35.61723643017340      -15.35238807130350       10.22878193516923
C           35.88049401609983      -16.22444286805536        9.00156177265297
C           36.73354103601152      -17.45402642729601        9.31190454821229
C           36.99883296732998      -18.32327721682425        8.08199806076366
C           37.84819216510010      -19.54456061400340        8.39583532742522
C           32.25599262419145       -9.62584381183868       10.45941894085211
C           31.66568107693327       -8.39960611666243       10.27797234059029
C           31.64236035150196       -5.01257610677954       11.69614496298585
C           33.02368161023860       -4.90518726830156       11.82896136915997
C           33.58515117818855       -3.81273878301263       12.44146400633706
C           32.79225066206507       -2.78168402149758       12.95313365144705
O           33.44399909756610       -1.71466130343140       13.58679272521648
C           32.58234134349757       -0.81233136198730       14.27187082353714
C           33.36050879637320        0.20087499283135       15.09818165869621
C           32.45654093674724        1.14972524608494       15.88231595578829
C           33.23628550886511        2.14461420446445       16.74078468952299
C           32.33087460733289        3.07411260462600       17.54824798082398
C           33.10995312973253        4.05355376531054       18.42551888263386
C           32.20456725219595        4.97476716413623       19.24412539963140
C           32.98578592620086        5.93896049617841       20.12245541820823
C           31.40651628083276       -2.88748329081204       12.80156098797018
C           30.84732491664054       -3.97978939671790       12.18558427374314
C           29.78653309903611       -4.96667892777884        9.35817700324576
C           28.68481393998906       -4.83770127998632        8.55439370100116
C           26.48443095736056       -4.85630790135131        6.55321878017365
C           25.28246536374751       -4.68313436113849        5.75212660535615
N           25.50063688554878       -4.03667139961747        4.63080103580664
S           27.10269034880212       -3.67323861528535        4.54959640623701
N           27.55208346436003       -4.33693594228399        5.98420808901355
Si          22.61016403605954       -5.44590672646649        3.72879857461833
C           23.43083037725510       -4.25570609652678        2.53094921983146
C           23.14141106050469       -7.23449042243961        3.51985357182063
C           20.24298047719968       -6.09306043843630        1.39442222401635
C           19.42755036722088       -6.02670664077862        0.19105769372761
N           19.73981823631610       -6.95844162425514       -0.68520247980735
S           20.96289493850098       -7.86341951865646       -0.06432371495462
N           21.12000317311849       -7.06913664470306        1.36677109184485
C           17.34921457704215       -6.04533513017259       -1.93343059291464
C           16.53837616288547       -5.98643678290913       -3.03565992245415
C           13.09040077156526       -4.07464787418437       -3.39484714778445
C           11.72359104889249       -4.03878518954463       -3.27085696149885
H            0.63494473407337        0.11570490708188        0.27520621949118
H            0.56367833666112       -1.52697985476384       -0.35561576462488
H            0.76920449861487       -0.17399511278406       -1.45656658824718
H            2.83112742862459       -1.04146883105626        0.65334720164712
H            3.03453781404187        0.30102302374695       -0.43742811868676
H            2.90508087895732       -1.27545610923519       -2.40115105369174
H            2.70287110831756       -2.61767822814123       -1.31156281588132
H            4.94586083676926       -2.11789849107180       -0.27357068619980
H            5.14613365739589       -0.76646620930150       -1.35208482869147
H            5.02650967309636       -2.32793845344951       -3.33100867003703
H            4.83306223422015       -3.68072528592580       -2.25252654968069
H            7.07364475132767       -3.18311361699194       -1.21515678613522
H            7.26240061988191       -1.81162829778071       -2.27009671378245
H            7.15875463603918       -3.34508674311601       -4.27765951136968
H            6.98999047708209       -4.71640578478439       -3.22001920811236
H            9.22528454543327       -4.23400961820757       -2.20227878672491
H            9.38605805090195       -2.81193974881550       -3.24389270767596
H           10.89140927305313       -5.76075567934716       -6.03580200239138
H           13.34395593130803       -5.83718123255043       -6.24648766437386
H           17.53683417159019       -5.63382747263598       -5.30081102893144
H           18.58815713578668       -5.53850153899055       -7.51839923054188
H           16.67208734350517       -2.95537817880647      -10.56911398060030
H           15.93642718657772       -4.54639850407949      -10.81719349526591
H           17.89481644505092       -5.21380958914494      -12.23556066988728
H           18.61123883584604       -3.64619716494253      -12.00250865989035
H           16.62985470832934       -2.56657112036182      -13.13110779737810
H           15.89796548983138       -4.13118285504742      -13.34969375650370
H           17.86360598301674       -4.85632793186730      -14.75453642040142
H           18.59695770531446       -3.29288358098206      -14.53778257059204
H           16.62040686743374       -2.20542740168707      -15.66225771805271
H           15.87627206001504       -3.76553902010826      -15.86916849956924
H           17.83275035412405       -4.51462592226434      -17.27443666752432
H           18.58031655342343       -2.95675036865622      -17.06670267455181
H           16.60672280435833       -1.85759321188733      -18.18366391344433
H           15.85287893925428       -3.41455125760761      -18.38649608036807
H           18.54731574888719       -2.60247507673655      -19.62569167311208
H           17.02393408281718       -2.73084217247163      -20.50000737181499
H           17.78523172342900       -4.17129196707280      -19.83102975961203
H           15.18488959183964       -3.48051695180780       -9.03225362841111
H           14.15077418702089       -3.56936768106752       -6.82460119402743
H           15.81530950866671       -2.69444684898753       -2.99329575611705
H           17.21637759066790       -2.80825480297765       -0.98988457296619
H           17.50753801941213       -3.35973894535661        1.04563647027200
H           18.84782768231583       -3.47978043114861        3.06033083100732
H           18.18392362129128       -6.19470083979726        4.46043756553945
H           15.87644781463179       -5.57997046608600        5.04353012408024
H           15.42849630760315       -3.47385927254535        6.23023898934453
H           17.28835681940462       -1.98255424880781        6.83154672202590
H           19.59424367489734       -2.59571990743178        6.24285788806910
H           19.64930771597451       -5.93828328187224        7.52094396355469
H           19.17750711120580       -5.48872615550792        9.88984716775162
H           20.49427092168219       -3.80683719623391       11.10756894240204
H           22.27981817901135       -2.57209807363783        9.95264534433495
H           22.74688630544919       -3.01925825767744        7.58176929471931
H           23.07754935221982       -6.17921724816861        7.86362046848840
H           25.09177414913755       -6.49943110923425        9.17829336553034
H           26.92788062424851       -7.51849425026641        9.61061465579805
H           28.91490555045753       -7.76450646208857       11.02024137047274
H           32.12563608973912       -7.10040984739823       13.34725786437225
H           33.18658728783630       -9.30234573310388       13.67572184672973
H           34.16216133388787      -11.41230474839262       10.03978961630390
H           32.68882720517358      -12.31389733330021       10.42574134493100
H           34.01553750190592      -13.82183596445917       11.92154907735115
H           35.46196266431951      -12.92043759848620       11.57108608489401
H           35.25214242589968      -13.53119508550892        9.12852982681104
H           33.80906218516174      -14.43890448791809        9.47982312965156
H           35.12856838276554      -15.94945320123545       11.00822308703598
H           36.57135779293295      -15.03669016475242       10.66795895055850
H           36.36799072443326      -15.62552587727440        8.22266215730069
H           34.92612045369339      -16.53952269303945        8.56236687046356
H           36.24542706187079      -18.05446541468031       10.08924594023662
H           37.68715091483381      -17.13902744130000        9.75290287718025
H           37.48308831981591      -17.71528315274195        7.30628596356906
H           36.04078470869229      -18.63171341855900        7.64281672874573
H           38.81994541727722      -19.25621206169653        8.80101214809027
H           38.03058960384116      -20.15676916181632        7.50972066206897
H           37.36555816527811      -20.18040399458516        9.14039206050369
H           32.27815999136341      -10.32499273285397        9.64358283678885
H           31.24378978532211       -8.13475963814692        9.32411106963972
H           33.64550070303105       -5.69327542616571       11.44169818455894
H           34.65238149705554       -3.73296728518148       12.54851742291997
H           31.92066785561177       -1.39886894160000       14.91875821152707
H           31.95860474796260       -0.30441629783083       13.52834987244958
H           34.02673879297791        0.77030655577597       14.44041191728085
H           34.02650337684206       -0.33404438956005       15.78468839991794
H           31.77924995165203        0.56779953095297       16.51925336473512
H           31.80083795748390        1.69194195564861       15.19025881276039
H           33.90315744369561        2.73871745709453       16.10428895477585
H           33.90255327738143        1.59961695565471       17.42048658571944
H           31.65618657520592        2.47723751937757       18.17398868916937
H           31.67241124586268        3.62938110202197       16.86925364305103
H           33.78050465952875        4.65561535044625       17.80030393136287
H           33.77302987051007        3.49677121224334       19.09888862194006
H           31.52937790548982        4.36553895101023       19.85963288721240
H           31.54436873388488        5.53098269947011       18.56545151408260
H           33.62196442472403        5.40245193337531       20.82892350875541
H           32.32862397953092        6.59106231659501       20.70224177084296
H           33.63800040020984        6.57804841910351       19.52433035284014
H           30.76780159292279       -2.10458740784773       13.16771835003526
H           29.77895550192576       -4.05972447916578       12.08468256521044
H           30.60062690182151       -4.26663528343964        9.28727545868872
H           28.63182977450538       -4.03579135472574        7.84072813339548
H           23.16753603337952       -3.23363890330831        2.78641903866662
H           23.10020941524933       -4.46496213089865        1.51764754054299
H           24.51000476820423       -4.36280850376520        2.58107666013591
H           22.53239797855269       -7.87627801133137        4.14960743050364
H           24.18408399784386       -7.34563519759659        3.80337012528895
H           23.02177519806250       -7.54142421689710        2.48556313796980
H           17.80883662445235       -6.97585518133653       -1.65417906838236
H           16.33561414792183       -6.87092482996703       -3.61421234125919
H           13.70795709676281       -3.61410993752086       -2.64543386312436
H           11.28495747854480       -3.54887861470814       -2.42080305308744
