132
 energy: -28.651191352723 gnorm: 0.000345854694 xtb: 6.5.0 (97a52f5)
C            1.84878105232339       -0.31131121599994        0.02946012577824
C            1.09342687566113        0.55818478336833       -0.66336967001671
C           -0.35312012475184        0.54393664195722       -0.76896329052945
C           -1.11853616889625       -0.44089944934362       -0.14653944414775
C           -2.48242592271154       -0.41937365301590       -0.26339394099545
C           -3.05235214658054        0.58922921674137       -1.00237769865451
C           -2.23102400096232        1.52205696950901       -1.58602417363556
N           -0.91361089139520        1.52713131435954       -1.49102689933759
C            3.29459531757631       -0.26165993330607        0.13336025487519
C            3.95894754918615       -1.17594248402590        0.95746156249122
C            5.32341416335262       -1.14121401046365        1.09912229166220
C            6.08727688206325       -0.18927210464503        0.42544910213879
N            7.51075338614519       -0.14040698480389        0.59577389364790
C            8.25437436334981       -1.36471718544773        0.60689674387071
C            9.38741496432772       -1.51981668698324        1.40405071789073
C           10.10447799250374       -2.69014100113672        1.38529047801869
C            9.72166248077028       -3.76001179633552        0.56930001966551
C           10.51054428739744       -4.97719824456585        0.56302247579373
C           10.27725332263541       -6.04280682170066       -0.22243178497932
C           11.04805510011423       -7.27091707043413       -0.25787230903004
C           12.13449297998902       -7.47320865236409        0.59163753805317
C           12.83784102087014       -8.64622871164034        0.53070251405296
C           12.43805919374904       -9.59346361232367       -0.38100530055491
C           11.35785284327798       -9.31988053933897       -1.18330876241189
N           10.66035960406205       -8.19879684067693       -1.14732481320701
C            8.57703894909414       -3.60363762173907       -0.21904005419200
C            7.86130763355928       -2.43334446680455       -0.19778882248135
C            8.17614656450539        1.12600601770048        0.63232160470483
C            9.47995885803381        1.27071975008875        0.15913325891782
C           10.06696284431288        2.50871111932098        0.08146692366626
C            9.36025611395953        3.66075087973901        0.43741267860696
C            9.90750510517037        5.02074999581012        0.25054047079204
N            9.66636492843102        5.88259779410505        1.21472127189084
C           10.22236033849088        7.10137892400127        1.05731418644319
C           10.02816618106324        8.08114498392515        2.05055406414313
C           10.59249866447718        9.31864644272261        1.94275497391166
C           11.38073209746270        9.63460533761315        0.83656124787913
C           11.58791032870224        8.70864720734873       -0.14393502840320
C           11.01748654223852        7.42302139586693       -0.06614518390858
N           11.22284635393368        6.54724298532848       -1.07147931550486
C           10.63871067798866        5.37674035799940       -0.93168711800387
C           10.77884316997338        4.43561259274776       -2.06251058438912
C           12.00136389418860        4.33649050176255       -2.72599638318485
C           12.18835495900045        3.41513134108490       -3.72543527642840
C           11.16293912140981        2.54767968533006       -4.10160416415132
N           11.39753272228025        1.50678072853498       -5.05483986794413
C           12.71063198048402        0.94900404007957       -5.20232675868403
C           13.18194679808476        0.57236064075679       -6.45910503455501
C           14.43958532464076        0.04484002509188       -6.60978586099091
C           15.28408154618942       -0.13522473757648       -5.50957607698835
C           16.61234189615860       -0.68171616752394       -5.71133301891440
C           17.52003273297653       -0.89021814032959       -4.74224560050369
C           18.85719059890583       -1.42370153875197       -4.92025240552939
C           19.33798121801376       -1.77661661960683       -6.18029712809583
C           20.60672641042969       -2.27411365672204       -6.31105734189363
C           21.36890044525973       -2.40822972914472       -5.17563376249707
C           20.82461930336413       -2.03861625255083       -3.97040596257120
N           19.60516619466229       -1.55588587176716       -3.81329956257636
C           14.80169106035627        0.23034372719326       -4.24839659744271
C           13.54337829221202        0.75822927689007       -4.10002249614124
C           10.30960721258145        0.92356616315892       -5.78293462059903
C           10.25902236006220       -0.45445264278878       -5.98896018224066
C            9.20186224820484       -1.02958406667373       -6.64687351719074
C            8.14609044013177       -0.25255415919893       -7.13336390636853
C            7.03625598865737       -0.90213272584053       -7.80345681565496
C            5.95261465069218       -0.27740982758599       -8.29481308359615
C            4.82605965152066       -0.91140787193916       -8.95293662482371
C            4.74982820334370       -2.29668679346432       -9.09019114945878
C            3.66880720159211       -2.86182835308497       -9.71160537904961
C            2.68490956440216       -2.02676258746818      -10.18342851750584
C            2.83196319138777       -0.67263970780494      -10.00959824722551
N            3.86219835502781       -0.09900008162391       -9.41438131297723
C            8.20849976510509        1.13164191090820       -6.93952048944358
C            9.26788837028728        1.70511525472321       -6.28090612112986
C            9.92114445083017        2.69009354669520       -3.48349342875430
C            9.72674997653188        3.62715721323371       -2.50059816768516
C            8.08391602807828        3.50656511220794        0.97715418585262
C            7.50630203987166        2.26632478634855        1.07588135454088
C            5.43161045127521        0.71053410494956       -0.41449080090685
C            4.06709079528582        0.67832732744752       -0.55677746034630
H            1.36311538474816       -1.10338326757064        0.56834159988420
H            1.57597208144654        1.36018774737626       -1.18918715835161
H           -0.64405205423171       -1.21816811981034        0.42465201305202
H           -3.09239978546354       -1.17112251147703        0.21056030474861
H           -4.12193461077538        0.64665261400259       -1.12125805515391
H           -2.66847315258360        2.31810335648530       -2.16854652870976
H            3.38241751594904       -1.91050286702110        1.49305457158244
H            5.82268691862158       -1.83999136476338        1.74730521166331
H            9.68581228639509       -0.70832846854858        2.04450715931671
H           10.97916767236952       -2.79338316510178        2.00421169953183
H           11.34572171997622       -5.00420947253280        1.23783987230048
H            9.45251377280510       -6.00990011807310       -0.90885160597392
H           12.42192537671506       -6.71408861569345        1.29640530425216
H           13.68039626148942       -8.82301682703976        1.17928112534734
H           12.96125783385226      -10.53199212637919       -0.46389997781145
H           11.03614766708954      -10.05691583835531       -1.90279706143578
H            8.24820887026834       -4.40820840331019       -0.85144157394867
H            6.99038550307210       -2.31835365596727       -0.81907008786866
H           10.00939451821458        0.40069955325758       -0.18655201271259
H           11.06995098741075        2.60761306021067       -0.29585696794711
H            9.42267368247966        7.82660895594781        2.90271469349953
H           10.43172862222654       10.05441130092694        2.71348864210543
H           11.82571668013165       10.61288598394805        0.75803929509920
H           12.19104076452429        8.94495024151920       -1.00297294202171
H           12.80461458231812        4.98626325452058       -2.42443033845736
H           13.13877540613661        3.34429236764349       -4.22445671581196
H           12.54459467339031        0.71577243032725       -7.31405427425774
H           14.79100397930395       -0.23332412247590       -7.58855004864278
H           16.87261577988991       -0.92718115224099       -6.72408086952618
H           17.26291790291829       -0.64504124311511       -3.72920651548381
H           18.71873785752208       -1.65913217582274       -7.05107678298623
H           20.99748554044118       -2.55251510524042       -7.27628221762390
H           22.37306590668059       -2.79570187593643       -5.23023688872691
H           21.41500711993342       -2.13973847000017       -3.07287128301314
H           15.42100739969029        0.09713090226692       -3.37996715812639
H           13.17705107271629        1.02155037187183       -3.12313690478496
H           11.05674322480104       -1.06486566750233       -5.60340399278801
H            9.17381268085315       -2.09645275207920       -6.78802083665993
H            7.10437055313559       -1.96974302525264       -7.89972276991260
H            5.88375227051221        0.79027885862732       -8.20648225059337
H            5.53268069023925       -2.92527717889061       -8.70605619363273
H            3.59007954875290       -3.93072354371638       -9.82626995005541
H            1.81524040994008       -2.42684347071109      -10.67845002119278
H            2.06458486461388       -0.00830068456687      -10.37584894684779
H            7.41764806802953        1.75892591677808       -7.30904972501628
H            9.31171950669053        2.77181060496543       -6.14613492920098
H            9.12055719072137        2.02775250893668       -3.76106533063600
H            8.76411866782933        3.72194043455355       -2.02895744590302
H            7.54906016280373        4.38543443708049        1.29323330646261
H            6.51577619714153        2.16230765783261        1.48270218588740
H            6.01732078712086        1.42959571667288       -0.96021502889742
H            3.59063852006835        1.38523753506595       -1.21158221508616
