194
 energy: -36.260608126728 gnorm: 0.000540454123 xtb: 6.5.0 (97a52f5)
C            0.75768014047140        1.01001191044605        1.13062374726867
C            1.98797188298590        0.80719787552676        0.26093772725777
C            2.61073412499074       -0.57915237316484        0.43072529263182
C            3.84926139816365       -0.79034358036636       -0.43945170217552
C            4.47337670730527       -2.17423913930020       -0.26274861988836
C            5.70820355018737       -2.38966110680089       -1.13675039164119
C            6.33417136778949       -3.77106457924358       -0.95242720012910
C            7.55830727879734       -3.99851389239390       -1.83908608209507
C            8.15078763981731       -5.35042007733914       -1.65941061221908
C            9.23870917754093       -5.65200721293531       -0.90630210790388
C            9.57395851763347       -7.03090890232627       -0.90737351320858
C            8.73930063688379       -7.81121473752378       -1.66147986804144
C            8.84690183001527       -9.24554933619628       -1.84862758932287
C            9.98901543737209       -9.93919972733147       -1.48709517664035
C           10.13392462814262      -11.31279403307338       -1.68389495449281
C            9.15025423064046      -12.09543288684587       -2.26648494708783
C            9.35569514930364      -13.53803175482322       -2.47510634757022
C            9.90118592961093      -14.29412322104749       -1.44412211360653
C           10.15781152503262      -15.65714580806585       -1.54289382182977
C           10.69256512038821      -16.36081874960641       -0.36587742629016
C           10.16646771364846      -16.13077566321426        0.89509885333161
C           10.62741329958862      -16.78434342535834        2.03782585220929
C           11.65582796773329      -17.71018342365643        2.00919789301065
C           12.08999569553171      -18.39482872483494        3.21232133179622
C           11.78059864502795      -18.03533496949435        4.49650656215168
C           12.32041833935789      -18.89496909131176        5.48767741048752
C           13.04898745043935      -19.92353036145060        4.98596645178854
C           13.70523320449250      -20.99108233389858        5.78580157313020
C           12.72759019369219      -22.08335071100058        6.22048935448365
C           13.38809553991118      -23.19426890047769        7.03517681272530
C           12.40096290338627      -24.27542949790513        7.47397062307828
C           13.05479105612358      -25.38987272723643        8.29022177273918
C           12.06228566974056      -26.46521924345943        8.73186230483662
C           12.71182168133378      -27.58265770513148        9.54907629534740
C           11.71693424454553      -28.64605572317681        9.98614038771364
S           13.08499237447008      -19.83106510041857        3.25201946227350
C           12.27342397342125      -17.96921066742878        0.73477786839184
N           13.29564403818671      -18.76238240876064        0.48520642157550
S           13.65430392395812      -18.66401317098254       -1.11262377770963
N           12.49704058268628      -17.57894233049512       -1.53087582839795
C           11.79712879455155      -17.28322181357289       -0.45532172939175
C            9.83691766831804      -16.32442537649223       -2.76731181103329
C           10.02079634859978      -17.71209130082821       -2.93554224762876
C            9.69290313979997      -18.34487689646282       -4.09400978376146
C            9.13275543894724      -17.64838420877670       -5.18598224345134
C            8.75175308801376      -18.30740681052110       -6.39861739824133
C            8.76983231104573      -19.76589260468730       -6.54817642548914
C            8.37080710669247      -20.62836101269680       -5.54045908964478
C            8.39762894568332      -22.01634750265348       -5.68035313328324
C            8.80644985460893      -22.64901731715031       -6.84234495900111
C            8.86489273364238      -24.09511405296217       -6.93757491233024
C            8.62668863155367      -24.97856268773411       -5.91880953103981
C            8.77805067311941      -26.34228488490642       -6.28054926415079
C            9.13039221669563      -26.53254617589914       -7.57643480848109
C            9.36306658504657      -27.84992407889254       -8.22541612403726
C            8.07912110586258      -28.65595385529981       -8.42516784936169
C            8.32677118868862      -30.02127146934633       -9.06513175334223
C            7.05096612344324      -30.84633752565676       -9.22912634159820
C            7.30640369263789      -32.22412395542855       -9.83955805251044
C            6.03515676640008      -33.06043627160079       -9.98232538445585
C            6.29344245365837      -34.44501498490903      -10.57804063511186
C            5.02650832485268      -35.27479676615284      -10.71032926969176
S            9.26556998875102      -24.99850904525299       -8.37944794249663
C            9.18446471728072      -21.80764825210724       -7.94844432766006
N            9.57722622888114      -22.18191448514456       -9.14931039094438
S            9.89063849838099      -20.83948025363352      -10.03889806918588
N            9.53990726113401      -19.72545605650755       -8.88702154474243
C            9.16115259022236      -20.36186661928367       -7.79899742079354
C            8.34974156644243      -17.52877700609895       -7.47733770512907
C            8.24278361261351      -16.14453321220564       -7.42605435264467
C            7.85248934618477      -15.41572038503315       -8.63704673165855
C            8.41009963658837      -14.19806926821674       -8.99075525996943
C            8.00135194781662      -13.47916442958956      -10.11423388635407
C            7.01990019364071      -13.92993101891708      -10.98090648828650
C            6.56498955428298      -13.12035897946347      -12.09500406344955
C            6.92698937950205      -11.82372588365988      -12.34544210374259
C            6.30368485686741      -11.25252972007121      -13.48478250608923
C            5.46054604175533      -12.09552673351640      -14.13135588137086
C            4.66546423343524      -11.76150005280622      -15.34258360718958
C            5.52781919295487      -11.51844578021169      -16.58164910188200
C            4.70570227988139      -11.14131013833908      -17.81312276278552
C            5.56587728296799      -10.85959338772045      -19.04417504016481
C            4.74224738302124      -10.45533865279182      -20.26651952627705
C            5.60185708059802      -10.15397379827063      -21.49357239794810
C            4.77873848887386       -9.73923765079672      -22.71371165177378
C            5.64020318006797       -9.43287101588504      -23.92807658107349
S            5.44423946773968      -13.63792050074715      -13.33242237787405
C            6.44906136532053      -15.22416636518679      -10.70913340084659
N            5.53281802691124      -15.86440313757203      -11.40696813134712
S            5.22148250479036      -17.29655123291941      -10.66984026813305
N            6.25496533717140      -17.12464395341496       -9.40752733567689
C            6.87276003445428      -15.96958470202365       -9.53498647143639
C            8.50246007685487      -15.48658172704201       -6.18177340173112
C            8.26918989098680      -14.10706523166563       -5.99939474369607
C            8.54261232258989      -13.48675761241065       -4.82089120538155
C            9.05423289986879      -14.19013432900475       -3.71171807047136
C            9.29125098423125      -15.58298036747014       -3.84781465983741
C            8.97580492947857      -16.24127914314288       -5.07594851212708
C            7.91688055997294      -11.43883185223198       -2.62190130231742
N            6.82836516834273      -12.00460740849506       -3.10064151362590
S            5.69592737404397      -10.83951843739620       -3.32612457659423
N            6.57921263774606       -9.56808385806030       -2.78405004795112
C            7.76835806567905      -10.00664917676496       -2.42330330543453
S            7.51528378949463       -6.79435531484936       -2.38307910195678
H            0.32292422686188        2.00374407355292        1.00240044507486
H            0.99848702835666        0.89114536937360        2.18848818036433
H           -0.01791447045944        0.27959326198272        0.89366798902781
H            2.74150864070556        1.57296026585959        0.48756230397243
H            1.73397843761959        0.96361566346080       -0.79574014906097
H            1.86396692571840       -1.34886862711558        0.20109895106980
H            2.86957652166665       -0.73983282778115        1.48429398828869
H            4.59483454668226       -0.01854892064113       -0.21305064417234
H            3.58983527014846       -0.63499563153359       -1.49366235662571
H            3.72652999977866       -2.94611649188850       -0.48468164206335
H            4.73668603525882       -2.32778817442945        0.79076367707615
H            6.45385927454616       -1.61528903292617       -0.91995075961495
H            5.44341915442679       -2.24315197634800       -2.19083656794356
H            5.58655837829538       -4.54659651996096       -1.15847763607919
H            6.61137172238713       -3.91622927964805        0.09864626180242
H            8.31748482241305       -3.23477769646015       -1.63408082270099
H            7.28455307082119       -3.86565959028548       -2.89218128404728
H            9.79302104634950       -4.90703977122370       -0.35579983287370
H           10.40640541829197       -7.42544906006757       -0.34637748031844
H           10.80994897494556       -9.39273319082339       -1.05829195897492
H           11.05962659054575      -11.78530657229503       -1.40399884700105
H           10.13444823768087      -13.79825737919145       -0.51929758513109
H            9.34459074137258      -15.44153652036170        0.98469186510921
H           10.14543761869501      -16.57796855405787        2.97677785355615
H           11.18608626139572      -17.16932781795213        4.74141926065547
H           12.16018199332234      -18.75446084597781        6.54596952761975
H           14.18581074640024      -20.54502602772781        6.66425399207998
H           14.51818760375549      -21.43148884156201        5.19710167356158
H           12.24274203842768      -22.51171896357776        5.33491129124507
H           11.91238544152180      -21.63431983652638        6.80063151876412
H           13.87877219736120      -22.76328051894370        7.91618966284623
H           14.19777037811594      -23.64823317169413        6.45122615130067
H           11.90959612976937      -24.70462597165304        6.59238061533544
H           11.59141470686493      -23.81936281422310        8.05665920602894
H           13.54903843058383      -24.96068450117154        9.17017196863164
H           13.86138430382426      -25.84964460482713        7.70645521025943
H           11.56739744347701      -26.89311029481012        7.85158086008518
H           11.25579314753031      -26.00421872096133        9.31492448565027
H           13.21009240125991      -27.14795935524302       10.42567118064639
H           13.51937153783219      -28.03903826860137        8.96152718298941
H           10.92481950656878      -28.21614361625726       10.60187633304488
H           12.19198862527211      -29.43865999481170       10.56845952747416
H           11.23613760019071      -29.11444686662970        9.12541799774264
H           10.44636398031579      -18.27854741100086       -2.12743627055653
H            9.90668227299689      -19.39340206805519       -4.19673123956966
H            7.99070632777559      -20.20651611432273       -4.62614838782844
H            8.08217909301110      -22.61882033470444       -4.84764512348748
H            8.36454283263867      -24.67433923932228       -4.91798397386312
H            8.63390299633823      -27.15831436721299       -5.58865512639235
H           10.07582829721089      -28.42598171870084       -7.62390433628641
H            9.85609408715446      -27.69116868492911       -9.19144179646777
H            7.37479991781614      -28.07933361418567       -9.03672012999431
H            7.57591314086545      -28.78751710173833       -7.45976927060146
H            9.05071611613070      -30.58237645010568       -8.46192976538670
H            8.81052716435003      -29.88991679477570      -10.04052362534638
H            6.33132563288335      -30.29549996780392       -9.84666138222025
H            6.56058192867874      -30.96167757896690       -8.25492898660018
H            8.03628994054007      -32.76738302053169       -9.22721242585222
H            7.78582555922337      -32.11047008099588      -10.81935316592454
H            5.30734112560928      -32.52226728375123      -10.60153575980866
H            5.55239400364442      -33.16588133150919       -9.00316164085039
H            7.02864335652711      -34.97465568662042       -9.95784712684698
H            6.77702922443463      -34.33383468864842      -11.55755526283268
H            4.55010340059439      -35.42555467771714       -9.73988603793738
H            5.22435569740258      -36.26118715946663      -11.13557745826018
H            4.29620458331801      -34.78047818318510      -11.35341932672946
H            8.10559155150838      -18.02430783073653       -8.40134600817733
H            9.20899633929222      -13.80547692216726       -8.38558023263377
H            8.47001180473804      -12.53191055897460      -10.31200494956997
H            7.60555137790860      -11.26594104155754      -11.71975289305071
H            6.47280674064433      -10.23564887957450      -13.80532861577197
H            4.05206980469419      -10.87682509071088      -15.13576266227999
H            3.95383591528639      -12.57183667454420      -15.53857371026562
H            6.12836730231369      -12.41140791220593      -16.79248579239817
H            6.25794430575533      -10.72798567435998      -16.37061015831317
H            4.09034847650685      -10.26200149737814      -17.58736164421024
H            3.98868828434558      -11.94018591159351      -18.03747048054897
H            6.17166227216984      -11.74240298982035      -19.28152797677198
H            6.29139004570002      -10.07031585994032      -18.81273059192998
H            4.12931727041584       -9.57901087947607      -20.02318518441653
H            4.02285179079177      -11.24802088744118      -20.50510260445960
H            6.21164798752643      -11.03133810292368      -21.74085295440719
H            6.32427641962943       -9.36490749011016      -21.25185317366357
H            4.16428784036684       -8.86635528934908      -22.45654894096275
H            4.05779817141150      -10.53255115463477      -22.95150917164207
H            6.34044090821006       -8.62169228555134      -23.72072883688674
H            5.04140834930270       -9.13693879298573      -24.79225084550278
H            6.23248528917591      -10.30149924571309      -24.22111305149718
H            7.82175564459350      -13.54151664860647       -6.79651452604614
H            8.35046878318036      -12.43388536378333       -4.72204036807896
