20
 energy: -2.788007728974 gnorm: 0.000254045017 xtb: 6.5.0 (97a52f5)
C            1.01213149214373       -0.05569395228776       -0.01992620773490
C            2.53213410338499       -0.06643809269214        0.00981522692550
C            3.09484748741063       -0.54958425814719        1.34713164052198
C            4.62261581008778       -0.56268215649653        1.38338895477037
C            5.18403547715744       -1.04612104182358        2.72151667430394
C            6.69739548886681       -1.06066328728013        2.76176794549880
Cl           7.26676806447608       -1.62565572572209        4.32563123681433
H            0.62232792511980        0.29104445772735       -0.97967701752406
H            0.60653609652358        0.59826440546697        0.75432670160168
H            0.60653698229094       -1.05350293512733        0.15757639506559
H            2.92156509148875        0.93736367631323       -0.20588072061717
H            2.92156607458451       -0.70059361638035       -0.79764299295747
H            2.71261468716499       -1.55400086129634        1.56632632301341
H            2.71261343529067        0.08280767539543        2.15767367833579
H            5.00551051399394        0.44160031793575        1.16520268700071
H            5.00551164547736       -1.19561605331227        0.57370867982740
H            4.80502684039478       -2.05151421849096        2.94371513725716
H            4.80502730767967       -0.41489604048422        3.53499234280165
H            7.10631297843527       -0.06323070552983        2.58421023766119
H            7.10631249802830       -1.71429758776801        1.98771307743410
