86
 energy: -17.056144672551 gnorm: 0.000570451650 xtb: 6.5.0 (97a52f5)
C            0.39783524434499        0.14707510861825       -0.66269305985478
C            1.89918841804370       -0.00634638184878       -0.48234127499829
C            2.63222792522784       -0.25032471321604       -1.80147354323091
C            4.14275748563298       -0.39890505979917       -1.62824483105156
C            4.87130571092066       -0.64989185426007       -2.94592109492845
C            6.37272041109805       -0.79316559204457       -2.78112103236209
N            7.01944213522624       -1.04016365791645       -4.05407646663206
C            7.26473912619383        0.06287316298280       -4.87412396449864
O            6.94935886995189        1.18936879333565       -4.53304851491186
C            7.90611488795443       -0.19176046393943       -6.16273103204150
C            8.19901742148644        0.85967627078732       -6.99121268647300
C            8.81250687813336        0.68092874577875       -8.23362740907115
C            9.07001326545250        1.82520952889616       -9.00649758859367
C            9.34668163833104        2.72696150490992       -9.78190671841752
C            9.75711237020198        3.56693051081524      -10.83575603493243
C            9.60972035820157        4.94777807956407      -10.80444144250503
C           10.03105239759921        5.71758516885807      -11.86785365294072
C           10.60348779700185        5.12002079566994      -12.97277080917551
C           10.75570813610563        3.74916928113117      -13.01601597284599
C           10.33464556643114        2.97933675708473      -11.95434376470544
C            9.14390014667621       -0.60773480467913       -8.65795036852877
C            8.84840640365266       -1.71323079079936       -7.81311396746753
C            9.16764976891297       -3.03574880550568       -8.20674302607190
C            8.86904876625157       -4.08798059063326       -7.38114244646674
C            8.24962857548879       -3.90984730933067       -6.14160802045347
C            7.98253937299969       -5.05384862706663       -5.37137663815049
C            7.68253251139029       -5.95153323290713       -4.59986247557021
C            7.23260174868915       -6.78312652024073       -3.55540052833641
C            7.39368032778085       -8.16273730802114       -3.56240721663049
C            6.93477572610554       -8.92258318605736       -2.50737313945727
C            6.31069889648926       -8.31639059855920       -1.43558255512343
C            6.14371881752827       -6.94673091164481       -1.41709678268393
C            6.60176719463784       -6.18696731421672       -2.47059687167711
C            7.92016433332727       -2.62093923626001       -5.71672440938422
C            8.22362427463562       -1.51445792393621       -6.55749888144204
C            7.26368913512367       -2.37122785808054       -4.41894955122381
O            6.92236700498073       -3.26220958753612       -3.66087728068356
C            9.81556805380203       -3.28991402825595       -9.49204800233753
O           10.07360642154154       -4.42288108321794       -9.85911744511924
N           10.11845196369953       -2.18183468378689      -10.28610258160095
C           10.75845441687102       -2.43305187074595      -11.56270250884792
C            9.78787893171718       -3.03748737789654      -12.56096822645228
C           10.42269871489466       -3.32364643402527      -13.91947031004943
C            9.45344963990180       -3.97178049167965      -14.90675436183537
C           10.08176643257842       -4.23798953414031      -16.27474226150633
C            9.12185845749062       -4.90860704174255      -17.24395627383909
C            9.79172153034256       -0.85812863554831       -9.96011458554386
O           10.04877653795099        0.02717221426557      -10.75713665338612
H           -0.11405876420883        0.31909473724857        0.28637524454599
H           -0.03849432187322       -0.74545563676504       -1.11409807529470
H            0.16322001774515        0.98677172641387       -1.31891764718622
H            2.11433982194448       -0.83110911124357        0.20936644381264
H            2.31441349847464        0.88646746425456        0.00285198107447
H            2.42134805848062        0.57042818181619       -2.49717207966887
H            2.22796107266744       -1.14634808881163       -2.28706725193201
H            4.35552917409019       -1.21672472132749       -0.92975968497355
H            4.54934180900395        0.49972813068744       -1.14958484276503
H            4.66809349955553        0.16599974865585       -3.64970158782329
H            4.47677482311884       -1.55178857802362       -3.42815271306345
H            6.61689590025156       -1.62052875597820       -2.10688246307015
H            6.80729860041315        0.11448576359625       -2.34981483032485
H            7.94524602513338        1.85323719411208       -6.66573772306845
H            9.16279215449461        5.40693974133587       -9.93948947311605
H            9.91288239057039        6.78818770146462      -11.83611664746895
H           10.93190413688856        5.72440006861535      -13.80227607338814
H           11.20299837188643        3.28111059725052      -13.87729485454331
H           10.44106352525798        1.90660987434402      -11.96161306311934
H            9.12344355600550       -5.08142186755993       -7.70641211010987
H            7.88197021591336       -8.62855851199406       -4.40102101575827
H            7.06528265925673       -9.99215488362556       -2.51919092450082
H            5.95462285130535       -8.91285492526865       -0.61177498736632
H            5.65698192081256       -6.47180994121737       -0.58133021013740
H            6.48666637052965       -5.11518797559631       -2.48178458785503
H           11.60522264284766       -3.10457950998109      -11.38828605319499
H           11.16850106697643       -1.48847443537055      -11.93472003654160
H            8.92852208217721       -2.36760315206820      -12.67953185711032
H            9.37687632527056       -3.96156322328640      -12.13692324671259
H           11.29821710860640       -3.96989023620836      -13.78594335732336
H           10.81593351220247       -2.39265712741813      -14.34437286381265
H            8.56822282630409       -3.33588301676945      -15.02529202653090
H            9.07510028658857       -4.91111458568503      -14.48643637301334
H           10.98040323907800       -4.85515129975935      -16.14634032454090
H           10.44536297602718       -3.29192950648273      -16.69636932816972
H            8.78082908613726       -5.87103054387700      -16.85896837169217
H            9.58176111496795       -5.08928165148199      -18.21771559025431
H            8.23444021763281       -4.29529205560760      -17.40836312985215
