80
 energy: -15.624925056346 gnorm: 0.000538459532 xtb: 6.5.0 (97a52f5)
C            1.68648402312681       -0.63511921009595        0.85148665152823
C            3.15615612109137       -0.35848432522928        0.58016278125765
C            3.50387228505171       -0.41031552516060       -0.90752386125770
C            4.97906045199248       -0.12904551097241       -1.18803313708732
C            5.32085028522992       -0.17808839344766       -2.67469638425539
C            6.79134591289876        0.06824503340879       -2.96155544701036
N            7.07903896520190       -0.02790531427074       -4.38010401132669
C            7.39035396923175        1.14885545586270       -5.06434559304583
O            7.41801559581705        2.22583060278835       -4.49534091119122
C            7.67871934114100        1.03606932156026       -6.49315499900233
C            8.01622154305327        2.15708570171408       -7.20561244150052
C            8.30143937572506        2.11221241711904       -8.57268446491123
C            8.63666311251586        3.31345001267086       -9.21428265449590
C            8.94503950144862        4.28359353786224       -9.89228499504683
C            9.31102129500546        5.23719028069529      -10.83930164377211
C            9.49309497106309        6.57780482121799      -10.69928663033616
C            9.87003963493301        7.23058493144388      -11.90631636016762
C            9.97516158416121        6.39281184521921      -12.96096928767905
S            9.60967496523197        4.77241548097596      -12.48841930522956
C            8.24152121611527        0.89070181773809       -9.24767205505144
C            7.89223217079923       -0.28455328851798       -8.52854613379299
C            7.81688250387470       -1.54116957468242       -9.17857733315794
C            7.47778045787855       -2.66209095282686       -8.46624181389990
C            7.19654606369434       -2.61745179029808       -7.09821939937188
C            6.84884112199488       -3.81405180144187       -6.45372246360891
C            6.51684712615410       -4.75744106507697       -5.74924705182137
C            6.11781168928757       -5.64756189466567       -4.75446745606438
C            5.89150409545691       -6.98715103887389       -4.81814569194215
C            5.48834599556942       -7.55604740858973       -3.57753930589487
C            5.40767428412582       -6.65562501339994       -2.57353724066748
S            5.83033656210228       -5.07857490885532       -3.13590855359033
C            7.26197024567902       -1.39631614088232       -6.42265988184174
C            7.61028735722409       -0.22133440218730       -7.14216086221556
C            6.97568061461947       -1.28954591914166       -4.98068299399527
O            6.64696984778770       -2.24306154846454       -4.29697801068793
C            8.09400078935288       -1.65094556812037      -10.60987589648747
O            8.06820642067926       -2.72677598643399      -11.18126433019491
N            8.39674784915863       -0.47187947819583      -11.29409030682688
C            8.66064417280461       -0.57070920092298      -12.71608486781233
C           10.03065886404162       -1.16453179253049      -12.98658791470769
C           10.35281311416549       -1.27504236282203      -14.47473255389665
C           11.71958897241863       -1.90120260466915      -14.74639634555026
C           12.04580203229910       -2.00102870149780      -16.23664295340150
C           13.40062902821362       -2.63663896339712      -16.50277466787302
C            8.52637782500282        0.78570953183492      -10.69010109999564
O            8.86860126686760        1.73664500919432      -11.37107176526664
H            1.45120927957025       -0.59377641720669        1.91691349691094
H            1.39775298834484       -1.62318231585369        0.48957955150299
H            1.04856457803126        0.09159161708321        0.34594885149627
H            3.78249980743986       -1.07755275323239        1.12368665090533
H            3.43610360466276        0.62334805595348        0.98317098411834
H            2.88231859667744        0.30712390909525       -1.45600776614701
H            3.23330293616551       -1.39163352200953       -1.31483589403625
H            5.60080397337533       -0.85059332444143       -0.64518758894481
H            5.25346996455634        0.85063316606981       -0.77979503246182
H            4.71772732689341        0.55238209265933       -3.22583717199115
H            5.04155963612340       -1.15414955810727       -3.08966795838610
H            7.41627252517249       -0.66527235652567       -2.44247019380782
H            7.10032523778546        1.05954127851974       -2.61337274094392
H            8.06017994415505        3.09871428940612       -6.68703551559776
H            9.36176360389390        7.09017013167980       -9.75850840523783
H           10.05395635973220        8.29341134480871      -11.96860880055915
H           10.24702383157732        6.67696465473575      -13.95972441107796
H            7.42625677090591       -3.60264514654022       -8.98592163658487
H            6.00844901199523       -7.55700912474774       -5.72716898625616
H            5.26905605617432       -8.60676128871511       -3.45432609109020
H            5.12328980585566       -6.87247166707141       -1.56147122613585
H            8.57504046225635        0.43138525139387      -13.14957570049277
H            7.87343427352332       -1.18496943947715      -13.16472270530529
H           10.08662424968237       -2.15278926211271      -12.51465021722225
H           10.79113553698357       -0.55909352842175      -12.48011383041336
H           10.30391781248435       -0.28130639350990      -14.93513102537985
H            9.57358311989950       -1.86139708194905      -14.97554628045882
H           11.76361142239518       -2.89811692368164      -14.29233034879095
H           12.49798996709326       -1.32124285277357      -14.23687977630991
H           12.00388300564687       -0.99966349586740      -16.68418649899131
H           11.25590998526773       -2.57106745192737      -16.74250208919853
H           14.20364827549979       -2.06400289201783      -16.03611857114015
H           13.62077977496015       -2.70110378813745      -17.57028612986013
H           13.44793165400259       -3.64834132247241      -16.09682529824801
