77
 energy: -15.510823274523 gnorm: 0.000587285222 xtb: 6.5.0 (97a52f5)
C            1.93750015249899        1.10210127476689       -0.49254164193198
C            3.37436722488439        0.76782570869706       -0.12590530464278
C            3.54752639892072       -0.68301690132792        0.32339299570927
C            4.98899795812181       -1.02847807455069        0.69348522896164
C            5.15176441275579       -2.47464306719586        1.15324359918808
C            6.57861020688574       -2.82980337769421        1.53024243060631
N            6.67095793069267       -4.19785976236063        2.00037435693145
C            6.15889874361773       -4.48353781455159        3.27193905482771
O            5.66257455434727       -3.61047374541101        3.96223575685784
C            6.23084247676408       -5.87220138215264        3.73613672148090
C            5.80526359152234       -6.20183302715466        4.99896360902484
C            5.88285664558757       -7.51302324193321        5.45493630859170
C            6.36620760257734       -8.50062537604339        4.64325666278206
C            6.79118091224953       -8.22350169787785        3.32897659826089
C            7.30415825964370       -9.23610273202378        2.44868708351456
C            7.29949694742712      -10.65362375015363        2.79625092719349
C            6.30148332590176      -11.34258319767326        3.43828755211658
C            6.57405616942029      -12.71310048683701        3.62395926494232
C            7.78948741846828      -13.10858447076710        3.13163085091701
C            8.34705620135063      -14.44179429345518        3.18421190460151
C            7.68819771297964      -15.59046348150432        3.67554865434260
C            8.57029928969582      -16.62824720708360        3.56289964549430
C            8.36361415952055      -18.02205001257459        3.96141748469209
C            7.09035718918306      -18.58733427207121        3.94130107367156
C            6.89312985250261      -19.89421000425853        4.32712101496093
C            7.95670684129418      -20.68152285889817        4.74452167518994
C            7.73504634579310      -22.08510273172973        5.18775250163093
C            9.22411603817994      -20.11796674636265        4.77965948333146
C            9.42589417227845      -18.81258715927019        4.39269020314224
N            9.71872914361966      -16.05249153491824        2.99412360956519
C           10.93323338987765      -16.75101540758432        2.64365503682639
C           10.91376487683392      -17.79960559587696        1.73632017393097
C           12.07906378944938      -18.45961556837154        1.41432365573089
C           13.27315820934993      -18.07519497693445        1.99156042168402
C           13.30115067961078      -17.02560302304032        2.88834470020045
C           12.13685160444552      -16.36404991727517        3.21060699695664
N            9.57623772201743      -14.75037031926819        2.77627308389402
S            8.60247564994717      -11.75399097277677        2.40981095437313
C            7.80759422867959       -8.84887144221061        1.21621750452270
C            7.76965205653305       -7.53116084494331        0.79390535650024
C            7.23735412097218       -6.54683836374884        1.59395562516688
C            6.74819295476974       -6.87964246135649        2.88196205243611
C            7.18470661585989       -5.16223847709862        1.12358596711105
O            7.56622312533559       -4.85737725935046        0.00634910102356
H            1.82581835067517        2.14104220343090       -0.80991244040645
H            1.26724705169383        0.94352195382921        0.35402463406141
H            1.58102833662174        0.46982925257912       -1.30753436824777
H            3.72706569004986        1.43763076288477        0.66924991009205
H            4.03777650798515        0.96494737965947       -0.97812425985019
H            3.19938848097474       -1.35778985535166       -0.46776775625757
H            2.89082046373893       -0.88406482392945        1.17828878800357
H            5.33977198968199       -0.35155795609799        1.48153837261842
H            5.64710455932975       -0.83791548805276       -0.16251924396065
H            4.80463327330834       -3.16040797760461        0.37155813586930
H            4.50195711906423       -2.66796751512291        2.01546802765468
H            6.94657563565795       -2.17390070011171        2.32557849305992
H            7.25341437918074       -2.71260290307214        0.67572803337715
H            5.42225635674088       -5.42015151749184        5.63262021099258
H            5.56490906106556       -7.74756475440697        6.45746086176109
H            6.45679790898841       -9.50176036515479        5.02333328220640
H            5.37036007588654      -10.88366240864502        3.73262919962422
H            5.88882386525351      -13.39105092111428        4.10839772649482
H            6.69076242878516      -15.63805293770700        4.07615667762534
H            6.25827113271896      -17.99040660985319        3.61063803923570
H            5.90365018327865      -20.31794053399719        4.30836057704127
H            6.89676869990246      -22.53755075405295        4.65668170108570
H            7.51719233259321      -22.12376857966900        6.25562799023710
H            8.61573634112129      -22.70065442160125        5.00105295642802
H           10.05407364638588      -20.71472512463411        5.11723272085620
H           10.41232945590172      -18.38580562819392        4.42814079476668
H            9.97677045264654      -18.08722986292924        1.29219770620290
H           12.05849769468411      -19.27512159996759        0.71024906216744
H           14.18458915632591      -18.59156940637402        1.73878077031777
H           14.23400353187591      -16.72100516478871        3.33363308105562
H           12.14258446186235      -15.53774219370339        3.89996507152990
H            8.21102684343559       -9.60573378119165        0.56629889413972
H            8.14716763016971       -7.25388771343056       -0.17566358607794
