77
 energy: -14.687950633603 gnorm: 0.000710597571 xtb: 6.5.0 (97a52f5)
C            2.56310592741506       -1.32975805609344       -0.24087929622549
C            3.82250893035018       -0.51254830686554       -0.47935280202638
C            3.96399979689082        0.65439795045780        0.49788439884983
C            5.22678355346919        1.48231415575293        0.26504609943830
C            5.36737519001040        2.63776514980764        1.25222975621063
C            6.60926177651334        3.47975815398184        1.02222934436647
N            6.69416420056249        4.56187741099779        1.98324077093336
C            5.78877401834204        5.62054205616686        1.85708062014960
O            4.96510895314267        5.63904265962005        0.95909537733241
C            5.85614974177874        6.69747454406173        2.85012379575692
C            5.00119315752728        7.76403583556881        2.74877059908986
C            5.04404779715872        8.78563429620025        3.68559197746461
C            5.93831267914205        8.74404175948225        4.71705340355995
C            6.84433482779097        7.67952072845820        4.88576997212720
C            7.80701059674684        7.59105480874719        5.95978211784275
C            8.01627368261197        8.55950027233939        7.03324076239176
C            7.24560752488322        9.59980518618481        7.49937167503224
C            7.79603022085163       10.30440196765193        8.59095396232892
C            9.01042066226383        9.82813943506925        8.99877800798166
C            9.81552336734152       10.28985510483873       10.04176736562818
C            9.61201943607678       11.22131848314548       11.01043598012452
C           10.62471498514842       11.40276664914316       11.93599244828508
C           10.51660894587572       12.30542451258196       13.08049341626088
C            9.35194210665857       13.00696616869857       13.38807073320830
C            9.30283315531425       13.84232360947651       14.48206674034934
C           10.40551148774182       14.00386745616367       15.30819312519559
C           10.34512092623519       14.92507339757829       16.47592964343495
C           11.56879489007703       13.31255528830817       15.00181679979130
C           11.62120434199608       12.47631526002309       13.90965716285644
N           11.78822321898923       10.70365151710258       11.76775209295791
N           12.34213130258363        9.98145284786328       10.77598079956786
C           12.07567921141969        8.64042952068875       10.63146193086715
C           12.57250281121247        7.94169938088428        9.54196671026924
C           13.33706202038500        8.59510064653941        8.64195452303464
C           13.59930258397508        9.87971034888539        8.79956402515708
C           13.11028197876625       10.54872752638114        9.83497256864800
C            4.86825676287053       10.77659067259397        6.32585573924433
S            9.47419721220324        8.48498048091976        8.00961840701337
C            8.64176834048166        6.48187878015137        5.97991889464231
C            8.57761448267382        5.47254037699631        5.03862671764843
C            7.66998512893611        5.52866871618675        4.01185455579664
C            6.79194320657715        6.63685867683271        3.91789062084815
C            7.61708475296659        4.44603451043850        3.02884717219155
O            8.34611695390579        3.47277460255040        3.11864743556069
H            2.47412580690286       -2.16122439079381       -0.94322854149491
H            1.66782119330070       -0.71455211141107       -0.34568439714293
H            2.54950342512384       -1.74839492033104        0.76689046599833
H            3.83430828684090       -0.12773875282248       -1.50748153335052
H            4.70947133717564       -1.15539253518125       -0.40648104657117
H            3.95780679454051        0.27540351324608        1.52683386656406
H            3.08201996491221        1.30224070838163        0.42791939643644
H            5.22872834366371        1.87224015842338       -0.75970203958732
H            6.11005790493416        0.83580114113626        0.32792188506185
H            5.37797457059483        2.25578755130612        2.27970818853644
H            4.48591818193276        3.28817705190460        1.19616506186238
H            6.60424834647186        3.91742287122944        0.01899329254001
H            7.51754507518754        2.87384079226568        1.10654314020579
H            4.29715455361165        7.78814189355442        1.93426638969130
H            4.35970447940837        9.61513898464565        3.60870345947931
H            5.90512268352359        9.54719401801276        5.42053465764905
H            6.28723732297003        9.89518553217951        7.10810621159130
H            7.30637217807389       11.14323563208239        9.06155380495710
H            8.68246452150920       11.75389412806799       11.06724794479440
H            8.48044688224693       12.89352395750241       12.76906300278368
H            8.39911935121719       14.38249136706757       14.70691952273977
H            9.40153716122619       14.81525900698810       17.01151338311845
H           10.43159672357049       15.96339305213193       16.15435514314488
H           11.15169496649305       14.72372560346328       17.18159438571034
H           12.43532376702935       13.43635347117097       15.62838116666037
H           12.52306415147083       11.93744194781337       13.67591397441394
H           11.45092249331606        8.14319398847099       11.35495928127289
H           12.35499864505014        6.89556581572262        9.40697838310673
H           15.45943794797660        8.11530204248212        3.32835191422168
H            5.05714903124981       12.55526342297700        5.97205101698595
H            3.19847130386648       10.22301705168920        6.81502686609283
H            9.36775691168095        6.40451979264870        6.76977266483350
H            9.23954884900225        4.62475367444755        5.09221293917358
