74
 energy: -14.989385168046 gnorm: 0.000388351660 xtb: 6.5.0 (97a52f5)
C            1.85143717241334       -1.05171374747078       -0.56629802147395
C            3.23747404012740       -0.42812600480387       -0.53362994723668
C            3.50290635574782        0.35454581030717        0.75228168695776
C            4.88316659432401        1.00962701021993        0.78514109537233
C            5.12574850970125        1.80779188210241        2.06329669528914
C            6.46361360112042        2.52677629429117        2.08739748036095
N            6.61450701071542        3.31759121245297        3.29471248420189
C            5.75808717877404        4.41214302932801        3.46632735495762
O            4.93451644876946        4.70856441399163        2.61834446489632
C            5.87583793153910        5.17936569861689        4.70901422746055
C            5.07920292870577        6.27757088413532        4.92045254981815
C            5.18758016646612        7.01818088912729        6.09143655209355
C            6.07781039637193        6.65196206985101        7.06183426418684
C            6.90097137517028        5.51929365094461        6.90864917461114
C            7.84446582076970        5.10490578733016        7.90926730544301
C            7.90852296042026        5.73150117979686        9.22631266744411
C            6.84107399085008        6.12378656754785        9.99348720592934
C            7.19711623816821        6.69075580877016       11.23342711210304
C            8.54785360080025        6.75254982903434       11.44941323046669
C            9.19833666550768        7.29816139876172       12.62086529724950
C            8.54033215331174        7.73168971025473       13.79338995659520
C            9.50631162164999        8.20370618331189       14.63699052749097
C            9.32038183751583        8.77650844390465       15.97000169935533
C            8.23432931110570        8.39564680464502       16.76289854721365
C            8.05147509793867        8.93732241621469       18.01263181786495
C            8.94688678339946        9.87649600131448       18.50034472454891
Cl           8.72174124510897       10.54963179318022       20.07264340885880
C           10.02548885660428       10.27127786906683       17.72442957942228
C           10.20844847283476        9.72878021271651       16.47567162999853
N           10.70733219067546        8.01778216739154       13.93198882648849
C           12.03032967528823        8.33213903538064       14.41795373058028
C           12.51869815247603        7.75049879856593       15.57839144370664
C           13.77447405398568        8.07503115943118       16.04160611093004
C           14.55520601575282        8.97743843902422       15.34707580337741
C           14.07951866373928        9.55208878882023       14.18529356308401
C           12.82363280689723        9.22929420656500       13.72116340410628
N           10.51151709911334        7.48284669002968       12.73092232160958
S            9.39139420092107        6.07203203636925       10.09022599119419
C            8.69663783410474        4.04986894967530        7.61845557742142
C            8.60797384115420        3.34831392220942        6.42840703225307
C            7.67249143673624        3.68348517036978        5.47588275918105
C            6.81451540045554        4.78914878806320        5.69767786760795
C            7.56142958514083        2.90530117441796        4.24175553553168
O            8.26064248154026        1.92569833193407        4.04632212078730
H            1.67349534139715       -1.60883924063216       -1.48842498637801
H            1.07423779594164       -0.28957925680448       -0.48852299732730
H            1.70931602405222       -1.74174510746277        0.26703450558304
H            3.37188847015478        0.23708666005320       -1.39645895044402
H            4.00486829177810       -1.20419235203702       -0.65092255507411
H            3.38909474370363       -0.30848433232710        1.61808347771021
H            2.73076530135252        1.12275066403851        0.87904611479943
H            4.99792567875844        1.66754850057300       -0.08432857916303
H            5.66131668687643        0.24573059605991        0.67224230461298
H            5.05073961040040        1.15225715401281        2.93855190705845
H            4.32906625033424        2.55060378881167        2.19209662324880
H            6.55840866644851        3.20092733831778        1.23048817649329
H            7.29528772037004        1.81642445679380        2.03278993716402
H            4.37708609137651        6.55834261779104        4.15397822085900
H            4.56805559609538        7.88884904371328        6.22979279249994
H            6.17740918452131        7.25677521192171        7.94462610532247
H            5.81670813479730        5.96917085633353        9.69175768752155
H            6.47228042269944        7.05167747965929       11.94620776317053
H            7.48058102502333        7.71747955141576       13.97843047256291
H            7.54404629525781        7.66040325838372       16.38790824444300
H            7.21844955895929        8.64195715178962       18.62748684987381
H           10.71017883226284       11.00427350321923       18.11563738163727
H           11.04000434871311       10.04115999637735       15.87001928848139
H           11.89908458980002        7.05046886534133       16.11112651112288
H           14.14704160680698        7.62495116464654       16.94697871522918
H           15.53748277629639        9.23114589753893       15.71027442701298
H           14.69057944264760       10.25326123566793       13.64115817092745
H           12.43885713398629        9.66732884735456       12.81675725719203
H            9.41812941574067        3.75368211392930        8.35982867027197
H            9.25990715956427        2.51387357834637        6.23293960425435
