50
 energy: -10.657431102993 gnorm: 0.000807742238 xtb: 6.5.0 (97a52f5)
C            1.56180948870793       -1.70494725604243        0.38153333926210
C            2.84381472743050       -1.00264530913434        0.13420199663701
N            3.34251362493587       -0.94555631941832       -1.06214336173533
N            2.69981474214503       -1.35593634289622       -2.15999061349467
C            3.33068339377739       -1.49896906568872       -3.40409417439415
C            4.71306245161570       -1.38243566127276       -3.49277157260550
C            5.35155753409747       -1.52432049898618       -4.70094432308258
C            4.62427935524342       -1.78679627371413       -5.85781610304033
C            5.27483261427368       -1.93325032158152       -7.09081391737457
N            5.81357458949643       -2.05748745818182       -8.11275453400455
C            3.24012918501133       -1.90331651644819       -5.76834788798058
C            2.60041297146446       -1.76213431169283       -4.56014779125078
C            3.56277387439528       -0.36188754997141        1.21801024155705
C            4.77904793725458        0.27566467626962        0.95817853367058
C            5.48393135624070        0.89492067687845        1.96582298599393
C            5.00185620766684        0.89326590900454        3.25596826838850
C            3.78987797799506        0.26177640387840        3.56217838281428
C            3.23321147628610        0.22294175984883        4.90107793462966
C            3.96196796042775        0.80413745256902        6.05307361691742
N            2.07028119474787       -0.32780336596754        5.06745782463281
N            1.38634247385028       -0.30712628496211        6.21458524040777
C            0.21624007879604       -1.05192472082505        6.41936966644087
C           -0.19740207862268       -1.96523646198924        5.45645080115203
C           -1.33752141857092       -2.70914954400260        5.64123115793108
C           -2.09870138461240       -2.56072934424510        6.79657084604900
C           -3.26157079972404       -3.31988560960561        6.98719566026670
N           -4.22555993889274       -3.94897008134755        7.14606398495663
C           -1.68424439271459       -1.64554893900413        7.75983595740930
C           -0.54374196095578       -0.90106074153117        7.57632915643786
C            3.08603822226902       -0.34866137652777        2.52741246684400
H            1.36211187930140       -2.43853161992311       -0.39859270820891
H            0.73090420974258       -0.99986217486720        0.41093011583440
H            1.58413531540738       -2.25124272406498        1.32429705675734
H            1.68104452277410       -1.35070835624637       -2.14138060888745
H            5.26885339336243       -1.18074295948016       -2.59432649727261
H            6.42249009802615       -1.43457211500937       -4.76699673996804
H            2.67704752337676       -2.10727408440984       -6.66320476690417
H            1.53032394336153       -1.85381881442567       -4.49545327845809
H            5.15389967984289        0.27633358679576       -0.05021081775177
H            6.41757177730932        1.38466292123984        1.74296128438424
H            5.55506330703761        1.39341994761713        4.03039184611436
H            5.04004798479852        0.69274893600929        5.94034568904951
H            3.69225679738432        0.29730314240915        6.97920325828729
H            3.73438024047267        1.86456627995477        6.16256728420961
H            1.61414855346489        0.42011066509676        6.89054138483604
H            0.39605117490030       -2.07701303004235        4.56654841377412
H           -1.65577781116228       -3.41721957460280        4.89527764692349
H           -2.27319768622965       -1.53009907420265        8.65374733953271
H           -0.22664708458684       -0.19495532264111        8.32353485743198
H            2.14586071738066       -0.80982315261749        2.76180545689486
