78
 energy: -15.655577425089 gnorm: 0.000565147316 xtb: 6.5.0 (97a52f5)
C            0.66010428295176        1.05949585264505       -0.43302481781378
C            2.10347510105466        0.58297529335388       -0.41768364976012
C            2.87586466358472        0.99391611206959       -1.67135333896366
C            4.32776644150691        0.51851581822418       -1.66312436379899
C            5.09238076754877        0.92092440917847       -2.92152205410570
C            6.53064837333885        0.43554988281706       -2.92955606296976
N            7.21113822055736        0.80920049671533       -4.15456199728985
C            8.17153928267774        1.82613524162452       -4.09088024009115
O            8.42293785398298        2.38958029812249       -3.03999529807907
C            8.85873104038859        2.19040792926804       -5.33334476016417
C            9.80373982540134        3.18658920165915       -5.33347070667408
C           10.44521267699834        3.55604520191691       -6.50980035299983
C           10.15973294946457        2.91795812450910       -7.68466371367109
C            9.22085729570174        1.86916366326580       -7.73781273621001
C            8.89480590435128        1.17572867202445       -8.95347868987269
C            9.61598334169746        1.38570607329870      -10.20344470999515
C           10.96053673471624        1.61176395256001      -10.35855943836944
C           11.37405588722244        1.73849784962684      -11.70080034790576
C           10.35729023871968        1.61321921259318      -12.60957169591213
C           10.47384292717500        1.68179146325845      -14.04967207930801
C           11.68348005947785        1.76087766784476      -14.77524795961073
C           11.34767212108738        1.78930981102176      -16.10020296763151
C           12.25088371849301        1.85893386167067      -17.24795191805272
C           11.84004853769147        2.41456963735975      -18.45927890330645
C           12.69034414216816        2.47321598643233      -19.53293092910927
C           13.99614909528263        1.98003383421675      -19.45055063796381
O           14.79376155609575        2.07090542605105      -20.59307097190983
C           16.08475335442311        1.52862248965434      -20.45660081297520
C           14.40990636077205        1.43124497176962      -18.23235258872957
C           13.55705868799136        1.37539068196489      -17.15874599322970
N            9.94450857110910        1.71504833597843      -16.10723662869474
C            9.10258450881985        1.63205665717844      -17.27772838405438
C            9.24605433757755        0.59131677595422      -18.18306306411714
C            8.43856088020695        0.52412039924752      -19.29674361720328
C            7.47747880966096        1.49175769443427      -19.51240972285772
C            7.32250066640400        2.52524048497291      -18.60996798485305
C            8.12941981927900        2.59398221271342      -17.49587264300697
N            9.43532951594217        1.65613391375809      -14.88098145004845
S            8.85701349230428        1.33813342542076      -11.77858528021040
C            7.86367366941759        0.24835734783930       -8.92863853841932
C            7.19545326440000       -0.07088496336937       -7.76008125225804
C            7.52637613520972        0.53260898560102       -6.56874057017882
C            8.53941749306850        1.52328535500787       -6.54373131020860
C            6.82672695504927        0.16561353303105       -5.33799581168554
O            5.93559196020429       -0.66695506899688       -5.34030011431073
H            0.11912253707070        0.75906172284887        0.46672850748627
H            0.12028388665891        0.65512669398646       -1.29091863751919
H            0.60442458346507        2.14718871854045       -0.50164346274124
H            2.13948274784961       -0.50913505150243       -0.31200486382108
H            2.62018691499547        0.97111178560538        0.46971327478975
H            2.84658845521374        2.08445575362526       -1.78130018121673
H            2.36705686318119        0.60410322592330       -2.56101356147169
H            4.35751776067743       -0.57159166251815       -1.54941886954379
H            4.84144384060488        0.91303820795831       -0.77851105716430
H            5.07836607261708        2.01055796632170       -3.03988491491803
H            4.58382647478137        0.52769001993872       -3.81022267266482
H            6.57372254013461       -0.65446224786077       -2.83979410019638
H            7.09066949872600        0.85071092940582       -2.08493934069437
H           10.02601036442500        3.68439723947650       -4.40496642158508
H           11.16606046959641        4.35682260665034       -6.49340431630474
H           10.63000780037997        3.24786950631210       -8.59276047092189
H           11.65168240609305        1.62546188870752       -9.53023156475487
H           12.39961175412258        1.90904342063590      -11.98882085157191
H           12.67660870237454        1.80449641157944      -14.36381293747864
H           10.84140177403480        2.80442208226395      -18.54209293388852
H           12.36798038229029        2.90023058332365      -20.46585958887303
H           16.60624759646653        1.63444476744407      -21.40849833651981
H           16.01877066608794        0.46917695586025      -20.20598488542791
H           16.63642434614915        2.07151223103693      -19.68823250412832
H           15.40846945569188        1.04683527286234      -18.13342041331125
H           13.88864217304834        0.94088623010639      -16.23176906515834
H            9.99819184400877       -0.15669547869191      -18.00214989374737
H            8.55661932967326       -0.28436710570250      -19.99923948739896
H            6.84540176218045        1.43812016101484      -20.38351396226202
H            6.56870374126536        3.27725971282479      -18.77554910596335
H            8.01685985294770        3.38922897139500      -16.77969704336348
H            7.60442105913886       -0.25388888569834       -9.84428961447423
H            6.41197082295204       -0.80951683917875       -7.75909561454399
