80
 energy: -16.455036889060 gnorm: 0.000540199306 xtb: 6.5.0 (97a52f5)
C            2.59199662896499        0.55413839551229       -1.82081684254249
C            3.76728899220316        0.64054326739582       -0.86048383384425
C            3.85333387777854       -0.56345258998819        0.07737487484615
C            5.01848697932573       -0.47616862600798        1.06181542644168
C            5.09014840693263       -1.67754870244661        2.00040903838779
C            6.21758332778123       -1.58577918296921        3.01310489614373
N            6.22804357534230       -2.73544031533582        3.89736053399527
C            5.17363612021363       -2.86582022349926        4.80971247311317
O            4.27852992296444       -2.04054304893715        4.86197963640527
C            5.18040383857856       -4.03594213594723        5.69319005823409
C            4.20117613414862       -4.18884673098346        6.64274005366515
C            4.20892400430764       -5.28303801191868        7.50032233196519
C            5.18243947373196       -6.23655807335120        7.39729984647064
C            6.19291833731704       -6.14770043553964        6.41939975119289
C            7.22824155563241       -7.13396070626928        6.27709018130120
C            7.24960194454426       -8.37266982137131        7.04782528990966
C            6.17417003416381       -9.14694844453126        7.39811590187130
C            6.51393481808567      -10.29640086698436        8.13383804447299
C            7.85829504768895      -10.44698464083454        8.35930275528626
C            8.43230989456784      -11.56252001312352        9.07447480000127
C            7.76174696050272      -12.50450049244128        9.80969797352105
C            8.72209245639870      -13.42641455731689       10.27970135787553
C            8.43768833009074      -14.59365764375850       11.11899475390866
C            7.13122775570676      -14.97813953483775       11.34076316818846
C            6.81365481265445      -16.07659172971886       12.13672053760224
C            7.79721033060820      -16.81023439268585       12.72749645878013
C            9.15369595255907      -16.47055938876984       12.54196964174890
C           10.18774704669559      -17.21723052027932       13.15092615966725
C           11.49347458375482      -16.87691080379279       12.96948264343529
C           11.82908873743560      -15.77900416878483       12.17292826810585
C           10.85329137033941      -15.04323526442232       11.57239557859463
C            9.48736449674575      -15.35695110043426       11.73163646264669
N            9.93248952892375      -13.08462416739335        9.84168309732785
N            9.77280824736196      -11.97781438457875        9.12979219954387
C           10.88350006118397      -11.34224650095116        8.46380787999841
C           11.56270734615165      -12.00662657170651        7.45533647498921
C           12.63025128721610      -11.40524976557178        6.82621185659799
C           13.02939085879981      -10.13853360270202        7.20402382081171
C           12.36212516231246       -9.47595407252533        8.21488849797596
C           11.29542428958121      -10.07584474408887        8.84433281087043
S            8.71909599895809       -9.10126067839363        7.64859819670363
C            8.24447051518674       -6.89846799258249        5.36380977729555
C            8.25130315686313       -5.77799135522519        4.55104191221855
C            7.24692846338399       -4.84157953218361        4.62865977456660
C            6.20469602370607       -5.01008315599457        5.57421591676252
C            7.26055671044903       -3.67103746328338        3.75011375106599
O            8.13613272035512       -3.51646475289098        2.91577199123899
H            2.54066792961951        1.41884425742066       -2.48580932321007
H            1.64508763787678        0.49877645226949       -1.28100249498110
H            2.65820214235052       -0.33772646080466       -2.44627293386519
H            3.70070461624099        1.55988890496825       -0.26413957299714
H            4.70742154837046        0.73240988075213       -1.41989705055626
H            3.93730907335600       -1.48447951606102       -0.51173472918656
H            2.91258374517192       -0.66495617147733        0.63164414315799
H            4.93446910395535        0.44473257190464        1.65097287922501
H            5.96253458598093       -0.38026529357575        0.51254184193879
H            5.19850230493599       -2.60240534040398        1.42204062079918
H            4.14172827622210       -1.78583658246219        2.54069140987296
H            6.11525703904893       -0.68713499181115        3.62948030658192
H            7.19080652287990       -1.52553932051558        2.51461438700253
H            3.43559210082889       -3.43553854994918        6.71762921122935
H            3.44450593815469       -5.37338705814991        8.25446735064208
H            5.19997028565998       -7.05115835217569        8.09764732202165
H            5.16492615802578       -8.92638967890212        7.08697546380668
H            5.78119556267085      -11.01174214396233        8.47332927115268
H            6.70347831591414      -12.51945841136479       10.00103570422428
H            6.33476152379936      -14.42125155127564       10.88061772120254
H            5.78067830150379      -16.34588352684419       12.28484992054389
H            7.54988049144550      -17.65765359945357       13.34320201968084
H            9.92705133239913      -18.06239868206516       13.76428718801344
H           12.27258643048160      -17.45403004127270       13.43981000344515
H           12.86516753037642      -15.51695135280749       12.03407466873674
H           11.12349551401938      -14.20594005029934       10.95927785199724
H           11.24103979633084      -12.99468438896657        7.17576651716407
H           13.15375313355340      -11.92339498687673        6.03963189315444
H           13.86347199833089       -9.66704055458376        6.71077068312623
H           12.67417698733600       -8.48757202200695        8.50995782776632
H           10.76689173274381       -9.57163220041983        9.63471889125780
H            9.03210430195708       -7.62625293901519        5.27466041169678
H            9.04046192036541       -5.62362905522778        3.83501441603530
