83
 energy: -17.032580728054 gnorm: 0.000720385069 xtb: 6.5.0 (97a52f5)
C            1.53061204232184       -0.27653541702645        1.26967410144616
C            2.62204953724325       -0.07666853946295        0.23046948615918
C            3.37477005540897       -1.36736608619612       -0.09530833225950
C            4.47323034603690       -1.17083886053294       -1.13952345515547
C            5.22231463688992       -2.46059204846228       -1.46997072945729
C            6.29985036542310       -2.26686280464644       -2.52837343216437
N            7.01265275961153       -3.52324078326927       -2.84464296108836
C            6.25983976512200       -4.65215850876234       -3.26374673919832
C            5.06673769461013       -4.50680948063368       -3.97508529205981
C            4.34698309209346       -5.59854199075621       -4.39935067688807
C            4.78114598286184       -6.90133922067397       -4.13503343590108
C            4.04719062992740       -8.08245460034634       -4.59245258621888
C            2.98639667631373       -7.99486504838793       -5.47263265766809
C            2.27873449000035       -9.11233750633494       -5.93004044472760
C            2.58017298221171      -10.40383226406519       -5.54837893802357
C            1.81903014442798      -11.55826110727801       -6.04668177135885
C            1.89415604282055      -12.79687266459241       -5.40744477993425
C            1.16655305505684      -13.87907063817259       -5.84559286496626
C            0.34650264255135      -13.75686014804345       -6.94818951304160
C            0.26419974849728      -12.54834018036451       -7.60946785191539
C            0.98923799966314      -11.46370365822468       -7.16806932114727
C            3.67472695225290      -10.56869290297259       -4.62339750994426
N            4.12636573153522      -11.69613026702156       -4.11711051894257
S            5.38600979988935      -11.35560036576674       -3.12328297401777
N            5.37933602973278       -9.72749978611797       -3.31602382802349
C            4.41309201388446       -9.40645791682364       -4.14882981688642
C            5.97045422791559       -7.03529567922164       -3.40981012328515
C            6.69963446466341       -5.95344952500670       -2.98467423930162
S            8.16590645408665       -6.28115982491344       -2.06264226705106
C            9.05863640083223       -4.78987289276899       -2.36003932238200
C           10.42507151519338       -4.84424005802976       -2.24631849063974
C           11.24102648202778       -3.72313419931131       -2.43658292478860
C           12.69605235148661       -3.82366246899115       -2.30606305229710
C           13.52695031975277       -2.73043853890087       -2.45858170836171
C           14.91985841668804       -2.80520551732514       -2.34439160914763
C           15.59130335643193       -3.97808528994170       -2.06657438756104
C           17.05632475895042       -4.02816021420565       -1.96064765465991
C           17.74059532918712       -5.24136887346959       -2.05191003730726
C           19.11338740181980       -5.30048600734348       -1.98459172037067
C           19.84518317937542       -4.14382698321866       -1.81150106306903
C           19.19389441994399       -2.93194575767698       -1.70195532099487
C           17.81982998579488       -2.87182500573339       -1.77443093575545
C           14.78630032895065       -5.16305324104747       -1.90114081148298
N           15.20936613833280       -6.38102996373984       -1.63851238647415
S           13.90880210628912       -7.37521674534638       -1.53837507114632
N           12.75336014378635       -6.24947046445498       -1.82954003453843
C           13.33621437953254       -5.08495516639590       -2.01465259959436
C           10.59617067969926       -2.52503730385546       -2.76056170279545
C            9.22818441176139       -2.45865165623470       -2.88218927212389
C            8.42320157519688       -3.58244838516937       -2.68153134914032
H            1.00229409502320        0.65269188202885        1.49396273884557
H            1.94266636440068       -0.65372618220761        2.20728209929813
H            0.78929687895726       -1.00162417949999        0.92921160452310
H            3.33691090908632        0.68228521072189        0.57454884420280
H            2.19350513146160        0.33548460509139       -0.69254564980155
H            2.66652571674131       -2.12823287106857       -0.44483207241897
H            3.80870572882220       -1.78274594017125        0.82214437101620
H            5.18322859784977       -0.41158424944149       -0.79024536324817
H            4.03845508215351       -0.75434037032385       -2.05613850857030
H            4.51049117934134       -3.22568686705357       -1.79887498391771
H            5.67708325558399       -2.87280354113959       -0.56152005213830
H            7.01758389990261       -1.52519285533954       -2.17056274268049
H            5.87932238150090       -1.85691540037657       -3.45025224434205
H            4.71826743450289       -3.51794223582892       -4.21377154831717
H            3.42901526721745       -5.43982023671911       -4.93519674013051
H            2.69233142444939       -7.02875944842614       -5.83997008863792
H            1.44973373957992       -8.94762164629081       -6.59438155549568
H            2.54391398050722      -12.90287691906795       -4.55964177127208
H            1.24126114232426      -14.82316804274628       -5.33108794234741
H           -0.22275140173597      -14.60372004267157       -7.29502677823385
H           -0.36897744413321      -12.45422326316601       -8.47662354537221
H            0.92903774294013      -10.53728966743701       -7.71031179590068
H            6.33217105303996       -8.01364114225223       -3.15626713557958
H           10.86785287873052       -5.79041415692909       -2.00057455889330
H           13.09428794372430       -1.77167025734268       -2.67703137160714
H           15.48957525828883       -1.90793698540551       -2.50654909022862
H           17.17506401929975       -6.14635289273473       -2.16899424132126
H           19.61686330790535       -6.25031225241653       -2.06222292267175
H           20.92061325291508       -4.18786021638293       -1.75645099878095
H           19.76378775755246       -2.02872175887361       -1.55656857965263
H           17.32895516279509       -1.92158546386426       -1.66414656634684
H           11.17399569993170       -1.63585032205463       -2.93353908219139
H            8.77117251520128       -1.53330973340394       -3.18442680014449
