110
 energy: -21.048756756372 gnorm: 0.000688403660 xtb: 6.5.0 (97a52f5)
C            4.42622585495335       -2.72937517747922        1.50728537575096
C            5.45435183146455       -1.74856041454856        0.96400142640021
C            5.07792134553206       -1.18326196146881       -0.40789930497094
C            6.12058668452872       -0.20876662214223       -0.96704072857084
C            5.92336712039177        0.10344676420198       -2.45647867069866
C            7.17190660062110        0.67219272668533       -3.12622884392031
N            7.07487741848326        0.65802066173938       -4.60242051312383
C            6.68384009448708        1.81527410843394       -5.29732679158609
C            6.22587988724493        2.95758192143525       -4.62967672386063
C            5.80608318518988        4.06616848558103       -5.31766270502464
C            5.80289968240918        4.06453452893469       -6.70076488353607
C            6.23272490727878        2.95609385503743       -7.38092929733459
C            6.71545316088728        1.82672405939345       -6.70960690184180
C            7.16850484152916        0.65583618305369       -7.45175857634406
C            7.46897113828241        0.72961248039677       -8.83975464420947
C            7.23430542254856       -0.33527020442769       -9.69889307788268
N            7.07362949933699       -1.22681821889059      -10.42886847580129
C            8.22306438030089        1.81792608849417       -9.45962028801070
C            8.50777855095045        1.77305755232641      -10.82644695002595
C            9.30810132694620        2.71371923625766      -11.42642197421063
C            9.69709048188159        2.54207433272291      -12.88212176924963
F           10.99603492087554        2.18981428934004      -12.93031561404809
F            8.94270955497729        1.56456223672844      -13.42055674375643
F            9.49889369051501        3.70513629132311      -13.53087019112590
C            9.82459277677979        3.75214709110945      -10.67678567007563
C            9.56090852622659        3.82138068073806       -9.32245285932581
C           10.11281846083795        4.94037107021260       -8.46257305611374
F           10.82980900897842        5.78236298062946       -9.23209661354655
F            9.07485825884609        5.58735200551751       -7.89538698103665
F           10.89249343018034        4.39577186253957       -7.50765372583831
C            8.79585105352028        2.85344460718676       -8.71978247983061
C            7.33374667428214       -0.58230355316326       -6.69961842532946
C            7.60049449807140       -1.80236809078406       -7.31559421524327
C            7.86358513071843       -2.97572167713123       -6.62476838678509
C            7.86724569609680       -2.93725441600214       -5.21127456652689
C            7.60048325208395       -1.71753654259361       -4.59571494163954
C            7.33292452325856       -0.54544642027486       -5.28597067318133
C            8.03090137574345       -4.17275656040331       -4.45532818582670
C            7.74461508211381       -4.23631242750646       -3.06288105679544
C            8.00506249712615       -3.17120929065289       -2.21103076303948
N            8.18209230090450       -2.27536636619987       -1.49011335775956
C            6.96215983477249       -5.30131838181441       -2.43714576598158
C            6.36005961052838       -6.32199628047163       -3.17426530765160
C            5.56220723891311       -7.26228354584932       -2.57091148044623
C            4.97390024504238       -8.36432908339061       -3.42856976179473
F            4.17319515098755       -7.79898246323512       -4.35357332958236
F            5.98785802722992       -9.01520708450895       -4.03352353543410
F            4.26999597874558       -9.20846805126155       -2.64925174704796
C            5.29727504548643       -7.17961079362339       -1.21755776780519
C            5.84504773666861       -6.15558807810728       -0.47032782903748
C            5.46038340876822       -5.97242526684283        0.98518064779029
F            4.15257450028016       -5.65636618004633        1.03689432846201
F            5.69381083650481       -7.12070068115991        1.64890926401837
F            6.19110011838892       -4.96727428600109        1.50486974757721
C            6.67587759181104       -5.24213974921990       -1.07118815515140
C            8.45986647801297       -5.35248522119057       -5.19721074736094
C            8.92330729723973       -6.48962441716518       -4.52550979665995
C            9.33034922743066       -7.60697862607214       -5.20510554209270
C            9.32317341329214       -7.61039897681249       -6.58817269226981
C            8.92151349909559       -6.49548959163826       -7.27669148621303
C            8.48555545659196       -5.34418704726454       -6.60964161105715
N            8.10765533883391       -4.18340256094182       -7.30624425268871
C            8.00183301798197       -4.20187376065803       -8.78175891936833
C            9.25172254759516       -3.64840445732161       -9.46152273575280
C            9.04709058350438       -3.33987523996934      -10.95175244801139
C           10.06466879388025       -2.33775641231065      -11.50975230047418
C            9.65920489437778       -1.75836258039772      -12.86762661296593
C           10.65080153667866       -0.73491828772997      -13.39980128403245
H            4.74841051612866       -3.18150850266017        2.44802498035810
H            4.25807081787061       -3.55019459944167        0.80874621759941
H            3.46307837725898       -2.24739373708287        1.67900646553423
H            6.43328904477349       -2.24121642692090        0.89208445457086
H            5.60179177837351       -0.92339850948993        1.67150796848387
H            4.09743973693046       -0.69651304718478       -0.36098172342068
H            4.95065837624060       -2.01712262645033       -1.10823289294862
H            7.11479700314912       -0.64594201338884       -0.82610869049525
H            6.13757256921661        0.71639743217793       -0.38006077610969
H            5.07235264310741        0.77826902735556       -2.60001095037139
H            5.63590093679875       -0.81568468186317       -2.97892901529732
H            8.05545327392362        0.09336242196002       -2.84368395210085
H            7.39177145141927        1.68035382629418       -2.76985226034023
H            6.17345137672462        2.96580565276904       -3.55699592028167
H            5.46692266734822        4.93815743546469       -4.78266425089236
H            5.46577292212866        4.93410706016191       -7.24077014037585
H            6.19930997658508        2.94972338152101       -8.45642761499655
H            8.12769917304515        0.96548627244503      -11.42741112777781
H           10.44951802198367        4.49668778133830      -11.14211827163624
H            8.66328990600260        2.90253531951121       -7.65440411147026
H            7.59516091516413       -1.85126327586038       -8.38196683086997
H            7.60616637625339       -1.66857416317331       -3.52943587885381
H            6.49330903327780       -6.37875127955940       -4.23916818213732
H            4.64756875776836       -7.90183389488058       -0.75105504373911
H            7.07814188209618       -4.44342444774443       -0.47281447907911
H            8.95965804220166       -6.48235276540336       -3.45011051966206
H            9.65250049388506       -8.48191753172378       -4.66463271425456
H            9.64490423040199       -8.48913422299760       -7.12291553496493
H            8.97092780035904       -6.50613885871882       -8.34947691573460
H            7.12246819889800       -3.61500905179736       -9.06074957456270
H            7.76905952261136       -5.20874268717596       -9.13347671286597
H           10.09769066165162       -4.32997703911311       -9.32000602411848
H            9.55003960103645       -2.72979108684561       -8.94426912131771
H            8.04256678196605       -2.92584884742978      -11.09059820166323
H            9.05071202294846       -4.26369214074756      -11.54109308560649
H           11.05414542522923       -2.80359153536685      -11.57551030649810
H           10.18332210548635       -1.51164073457551      -10.79883138771521
H            8.66616798003390       -1.29810435119703      -12.77679844822775
H            9.53080843482526       -2.57374087263519      -13.59001441239303
H           10.80071425475792        0.07627760196904      -12.68608073558653
H           10.30675445630619       -0.27355595352841      -14.32832077197831
H           11.62677091787245       -1.18278537940623      -13.58990956039234
