21
 energy: -2.998587237829 gnorm: 0.000708474160 xtb: 6.5.0 (97a52f5)
C            0.93721024954161       -0.02385795758677        0.14679158543669
C            2.45711864116893       -0.00908985851413        0.11447033303623
C            3.01532061987763        0.60263919453113       -1.17108075748619
C            4.54308425178642        0.62043250121564       -1.21174161792191
C            5.09799884603138        1.22480947976937       -2.50069786024045
C            6.62090680136512        1.24197951366181       -2.54068926543316
O            7.14093160137032        1.81997474886833       -3.72005305686834
H            0.54938594150702       -0.46360471788256        1.06859031307784
H            0.52957095540310       -0.59863673779296       -0.68719109503172
H            0.53025538141584        0.98629361340068        0.06912219370290
H            2.84755461157746       -1.02881467588446        0.23074927247789
H            2.84841717593300        0.54295126214362        0.97927254557403
H            2.63161343309621        1.62327538644201       -1.29039720062401
H            2.63005809407796        0.05226034159693       -2.03813717913235
H            4.92727267406562       -0.39949155847334       -1.08801238661791
H            4.92900948014466        1.17552066434109       -0.34801896909472
H            4.72265459141962        2.24679083063741       -2.62680011103200
H            4.71570955784974        0.67103987031664       -3.36585258476523
H            7.02888357107485        0.22909639706323       -2.43384881741183
H            7.02059229752060        1.81957319676643       -1.69877247318548
H            6.79037122377290        1.34964850537990       -4.51067286846027
