158
 energy: -26.127689288246 gnorm: 0.000411115708 xtb: 6.5.0 (97a52f5)
C            1.65783859108823       -1.86321733010790        0.85836642091225
C            2.86190846354035       -1.70533842595613        1.77286126215733
C            3.40815744321937       -0.27736586433088        1.79094280963034
C            4.62343904277141       -0.11590807707082        2.70172396888582
C            5.18532677437510        1.30319690718291        2.70235731762021
C            6.42056653837364        1.44415045728866        3.57443933291421
O            6.99597575692293        2.74830089466243        3.48363986746410
C            8.40994040524825        2.73919867748903        3.53780660970753
C            9.02105976680048        3.22387097393768        4.68848196823141
C           10.39794085523206        3.19360953126083        4.87721170862186
C           10.92826764828127        3.53930337236827        6.17547548911023
C           12.13915709015253        3.15529038901451        6.63682115739344
C           12.52373154966044        3.17036976316015        8.05262044388969
C           12.83400593494074        4.37910970975244        8.67282511783576
C           13.27825148136809        4.45081859089177        9.98459316228411
O           13.70504095362464        5.69951570159094       10.50386425117541
C           15.10361292096309        5.73654543158236       10.82167911024787
C           15.41445979019483        6.68324151634662       11.97604453744591
C           16.77674377395694        6.43658943237729       12.62268440520761
C           16.97126465849857        7.25098094979364       13.90219550723721
C           18.23453487627985        6.87908865182437       14.67692955235670
C           18.39723380761735        7.69603884979887       15.94919673603970
C           13.35381040273307        3.25179521607126       10.74503919342188
C           13.73900620787276        3.29072873162724       12.14315358168670
C           13.37356766558480        4.29250880337479       12.97219711554113
C           13.94730592787065        4.57421124412224       14.26196024313239
C           15.14832308480667        3.99795883793929       14.66073463865816
C           15.79652937640256        4.36988685689841       15.83223447708783
O           17.02489925444408        3.75367894527166       16.18184389703672
C           16.88868652210651        2.75883921660633       17.19946869708435
C           16.00760552152748        1.59387263658601       16.77480709646084
C           15.86567311959449        0.52582911289599       17.85603188741717
C           14.93842772783728       -0.61599275468545       17.44215483997900
C           14.78337464177178       -1.68550340693151       18.52364971540742
C           13.84049717338308       -2.80485863741244       18.11209098668682
C           15.21124997464396        5.37226753987857       16.63856189127782
C           15.89414804336744        5.88427939425216       17.80726181956347
O           15.52356829442087        6.81376304405437       18.47733668817861
C           13.99488150520969        5.91906954306513       16.26872259512823
C           13.34821797118304        5.55646979165480       15.09395306432903
O           12.11015480897199        6.16179566091609       14.74848834267091
C           12.20956531137050        7.35806286441703       13.96602244608589
C           13.10223123185795        8.42625052526753       14.57821271802871
C           13.27136861791795        9.65004410435377       13.68192393760667
C           14.26024721596265       10.66550539782858       14.25240861123746
C           14.48137426429247       11.86787446464200       13.33478635073599
C           15.48039799204212       12.86345876435525       13.90211530969763
C           13.06030164899830        2.04242280623858       10.12144947309757
C           12.62650284483247        1.96226518115186        8.80436325209835
O           12.29812150359825        0.67515032772766        8.32576072643105
C           11.28488693173076        0.63617536164092        7.32278940649498
C           10.55950549591245       -0.69436367374999        7.22091651375106
C            9.49162064479129       -0.66755789594684        6.12596624284870
C            8.74666381204893       -1.99063441359730        5.96281603456788
C            7.67416850315462       -1.93425423577257        4.87337779690770
C            6.93911447286222       -3.25251004605008        4.69535769289197
C           11.22097298897152        2.70454347581259        3.82698823966094
O           12.60757893444324        2.69116685079491        4.01920419721944
C           13.38129033814331        2.27793445530604        2.89875884974166
C           14.87277407023798        2.37636333481088        3.18164333838098
C           15.73475800310547        1.96396389926370        1.99086016496139
C           17.23260615614591        2.07728932012466        2.27139974503911
C           18.09749133631055        1.67435590334038        1.07653877220227
C           19.58624500110195        1.79203186763777        1.36093939043368
C           10.60855973018803        2.25425882436229        2.66370632732774
C            9.22928749942485        2.24163259708322        2.49709832528196
C            8.68250993397693        1.71113898695229        1.25817984973139
O            7.55143434151102        1.38543810511454        1.01431970002918
H            1.27815479887287       -2.88730724486143        0.85221983586105
H            1.90714184394700       -1.59976250530114       -0.17109300264613
H            0.83901971998026       -1.21115660698901        1.16766913429436
H            3.66069216991423       -2.39432288718125        1.46802815676970
H            2.60246375749374       -2.00731806914514        2.79613698869622
H            2.61851814218636        0.41700844606791        2.10244142987936
H            3.67115540547390        0.02878335593133        0.77113792622369
H            5.40806477036953       -0.81721356636430        2.39240957871915
H            4.36283652957654       -0.41094549150942        3.72539696357472
H            4.42233754118680        2.02039152374066        3.02432816985754
H            5.45407839216096        1.60051954339415        1.68132811518924
H            7.18404667764022        0.72042134919468        3.26741896695400
H            6.19331318726533        1.24780875634828        4.62790998369322
H            8.38748681736158        3.58048938999439        5.47942280518449
H           10.24524890008421        3.98108471369520        6.88027498468517
H           12.80183853266140        2.65212323951283        5.95369963901841
H           12.77944097910443        5.28813848487342        8.10336460520708
H           15.64895016810065        6.01817210223894        9.91433021002391
H           15.42365114132504        4.71930228700898       11.06923323335686
H           14.64076074889392        6.55948811592240       12.73852684208892
H           15.32319535921601        7.72427104075160       11.64691816042769
H           17.58055241096212        6.64959423894754       11.90818859427858
H           16.87782803491025        5.37018672417817       12.85784960965736
H           16.10392121018668        7.10934852531482       14.55661105802051
H           16.97772226367175        8.32127391034711       13.66405374787342
H           19.11126649050747        7.00369113657739       14.02823830983011
H           18.20684409810278        5.80810745545361       14.91958060030547
H           18.47908252610289        8.76139170202625       15.72688142767402
H           19.28731547094889        7.40697933073709       16.51191251395693
H           17.53738558710930        7.57350583542961       16.60996900590744
H           14.36036376421460        2.49426961953914       12.51604504662269
H           12.64672266104104        4.99514389295325       12.60490671609014
H           15.62841912244749        3.27000249581091       14.03518076277886
H           16.48867947171884        3.23950359320974       18.09811604260488
H           17.89768190766643        2.41357519765256       17.44950507471932
H           16.41043384775017        1.15044661549902       15.85730257845852
H           15.01650452127564        1.97143321516311       16.49912980791703
H           15.49306235893524        0.98566064050376       18.77943737431076
H           16.85405807575273        0.12685088012555       18.11420938473542
H           15.30974546502750       -1.07611141270426       16.51844749805873
H           13.95269051793576       -0.21165696357228       17.18175408821855
H           14.42891300410991       -1.21499997886577       19.45022453847175
H           15.77116291804249       -2.09473562462727       18.77331759133657
H           12.84177879593400       -2.42035202957732       17.89729610833832
H           13.73912104364179       -3.56397172659267       18.89080639932123
H           14.19308748477193       -3.30585083056402       17.20876129287666
H           16.84408857769897        5.44537737535419       18.07621820547024
H           13.54941635836537        6.66386321299805       16.90189398015908
H           11.18955706884102        7.73670007039541       13.83833750355669
H           12.55698145892657        7.08419243674383       12.96571192873226
H           14.08627535838304        7.99794503301112       14.79061654039111
H           12.70427459971309        8.72260075484142       15.55521187361233
H           12.29819683107397       10.12724079567503       13.51505519978507
H           13.60697494259395        9.33219415499451       12.68737601439039
H           15.22035161346899       10.17270648856467       14.44759849727338
H           13.91263855624750       11.00735738523321       15.23465005208489
H           13.51922294133034       12.36199921773522       13.14601935119848
H           14.81721793544737       11.51529520803160       12.35056469968241
H           15.14778438631536       13.24956542553998       14.86728031104484
H           15.62929823680870       13.71895009928179       13.23963155803359
H           16.45474152033713       12.39766821340024       14.06070233925441
H           13.12553795362029        1.13151549434125       10.68689758930178
H           11.75988542053271        0.86304792836251        6.36351753030853
H           10.56626555720895        1.43325578492311        7.54113702482599
H           10.10818665587554       -0.94176850190982        8.18809585547622
H           11.28446198766038       -1.49235550628623        7.02592928175988
H            9.95359570844820       -0.38737325029533        5.17116510986895
H            8.77328045311512        0.13459386246244        6.33534880615437
H            8.28910923993835       -2.27712007593726        6.91733494368739
H            9.46143958956371       -2.79099184673120        5.73689448312105
H            8.13672778900331       -1.62900741838614        3.92541070091309
H            6.96025568027884       -1.13525436544774        5.11183808292250
H            7.62755122914044       -4.05446997836587        4.42295265450478
H            6.17656524045423       -3.19512371489944        3.91532615610354
H            6.44189252184585       -3.55507377839133        5.61870443397678
H           13.11260819567152        2.91189065055148        2.04674983655109
H           13.10587707406652        1.24654878617678        2.65349010780100
H           15.11609602853427        1.76009108967800        4.05456326756961
H           15.11347632288581        3.40251630699249        3.48166940891036
H           15.47579256362933        2.57803144319822        1.11975300856285
H           15.49040165273259        0.93576522035626        1.69758520047854
H           17.49250175794230        1.45983318650088        3.13963500106276
H           17.47404575462366        3.10438462743779        2.57050435765321
H           17.82839292884137        2.29251644161572        0.20985183125284
H           17.84927613766471        0.64684379777018        0.77950468108645
H           19.85777873818972        2.81561479650452        1.62536344987262
H           20.19288201180683        1.50360076809716        0.49967789076737
H           19.87995184038560        1.15536751275767        2.19743877157232
H           11.21313687728661        1.87309149778972        1.86287458965464
H            9.38248389609328        1.54933391751380        0.44908507076562
