51
 energy: -11.265646919616 gnorm: 0.000489244667 xtb: 6.5.0 (97a52f5)
Br           1.23805302852650       -0.37416666881067        0.04993238837406
C            3.11452601885192       -0.22108413901912        0.05986386800564
C            3.86271176642727       -1.35982179135708        0.04437381304351
C            5.27854170716165       -1.31328522772169        0.05150300645956
N            5.96767434419290       -2.45927942311449        0.03533614360747
C            7.29168940148968       -2.31375476272498        0.04781535910588
C            8.09491764103146       -3.47515851882939        0.03020443323713
C            9.47079300445481       -3.43395281268771        0.04474328823439
C           10.12655764531265       -2.16795350208127        0.08072446181364
C           11.53308623571171       -2.11773635660895        0.09202943002478
C           12.15459419855947       -0.86672354631765        0.08156017052564
C           11.41382084361487        0.29670517798636        0.08638043380143
C           10.03871127892265        0.24501349948456        0.09426665947386
C            9.37093182249648       -0.97792200861984        0.08706595894650
C            7.92488632472339       -1.03428307991583        0.07638265441626
N            7.24737123702328        0.09966250299160        0.08946691196544
C            5.91222288464369       -0.04111601188136        0.07614513447996
C            5.09902542205997        1.11577552397299        0.09039538422262
C            3.73822688363355        1.02889319123455        0.08279428171557
Br           2.73241193647512        2.62028887386329        0.10370153134968
C           12.27200714518792       -3.35302133134329        0.08681057836224
C           13.75297343493794       -3.32957017882477        0.06002273902985
C           14.48071404813386       -2.71688296893626        1.08354295811954
C           15.85593881705612       -2.69985050260765        1.05704127246090
C           16.53654933931006       -3.29415927125331        0.01323071638504
C           15.83657470367132       -3.90709188135892       -1.00674331908795
C           14.46126427911206       -3.92516542630983       -0.98681379544705
C           11.56386130860015       -4.55438510815963        0.06543346532147
C           12.24271326819779       -5.86537639058732        0.08942473214482
C           13.32714148758404       -6.12868490825844        0.92465247534465
C           13.91846877830199       -7.37140286520914        0.93792190523871
C           13.43226249724136       -8.37800808901181        0.12828346280387
C           12.34660288787403       -8.14001548276451       -0.69018302996841
C           11.75404638060714       -6.89742931114015       -0.70517980765677
O           10.19162064881860       -4.61363086241069        0.02096524267542
H            3.37489766803749       -2.31875060637383        0.02681203519531
H            7.61052181814679       -4.43252058060937        0.00638811601954
H           13.22811154809410       -0.81334856037635        0.05857669225227
H           11.91417804849297        1.25094077154649        0.08208520292181
H            9.45592635671148        1.14943703101177        0.09751331612741
H            5.57119031198640        2.08246530917599        0.10854365499644
H           13.94794893908850       -2.26737484426841        1.90379389443834
H           16.40293441772436       -2.22293693518384        1.85361396111427
H           17.61389686786757       -3.28039148809486       -0.00485995762916
H           16.36838560079413       -4.37276284157267       -1.82003737594223
H           13.91193031969501       -4.40178437693250       -1.78022498881726
H           13.69704962941730       -5.34824404278447        1.56588785167039
H           14.75985353715895       -7.55908375198856        1.58448792701023
H           13.89475738338658       -9.35119361812486        0.14130994380792
H           11.95968256404858       -8.92828504647265       -1.31476382890167
H           10.89727233940275       -6.70621276061951       -1.32829135279385
