30
 energy: -6.363141970078 gnorm: 0.000707919268 xtb: 6.5.0 (97a52f5)
C            1.03093965518238        0.14625400328647       -0.18697367065818
C            2.50832545249437        0.16195610325565       -0.07617974929520
N            3.12515943431444        1.20683822306035        0.38028662375516
N            2.52511914553363        2.28239256262708        0.89635914780012
C            3.24447883600724        3.43108322117943        1.25292810547431
C            4.59783716618294        3.51113404571436        0.94531550583912
C            5.32681166136900        4.62654474222539        1.27883801221855
C            4.72162049472406        5.69604011915520        1.93210044022811
C            5.46265615476298        6.83591182166667        2.27342237163274
N            6.08046813909933        7.77953636113509        2.55302682833181
C            3.36680760996121        5.61378500754817        2.24136896610021
C            2.63635173803198        4.49857227980810        1.90786353828532
C            3.30704721139384       -0.98499493340426       -0.46349249918340
C            2.70553914334333       -2.18822777531192       -0.83962520463752
C            3.48234883605062       -3.25523625489791       -1.19927917031314
C            4.84726691231489       -3.10016587697006       -1.17331396074047
C            5.36549768706586       -1.88786976071994       -0.78603638070803
N            4.64292624338813       -0.84182722961921       -0.43415379288246
H            0.63594350637882        1.15728663718490       -0.27935907243872
H            0.57925740780146       -0.31982882358885        0.68891794218494
H            0.70595218752013       -0.39663000628176       -1.07450696177649
H            1.57698028151667        2.17748968061046        1.25314439581084
H            5.05625264618385        2.67564389562085        0.44580510232210
H            6.37491521836245        4.68641271967888        1.03970730645854
H            2.89906180533119        6.44110371361363        2.74741004705822
H            1.58910964817636        4.43979175283905        2.14734999704235
H            1.63447518894465       -2.28383548651660       -0.83042626667808
H            3.03785381998797       -4.19260397860635       -1.49128910267643
H            5.49815808206415       -3.91381930094662       -1.44786397239394
H            6.43631868651861       -1.75620746335024       -0.75862452616139
