98
 energy: -20.686900515285 gnorm: 0.000622560322 xtb: 6.5.0 (97a52f5)
C            2.08781222653887        2.22504784455992       -1.11072657185339
C            3.26338426770313        1.82825622805018       -1.98850306300670
C            3.54523020622986        0.32470401244844       -1.95691091377193
C            4.83446256683298       -0.05562997196996       -2.68497280176056
C            5.24621701183260       -1.51021822135209       -2.46056244217321
C            6.63069340115723       -1.81880580480163       -3.00843965951490
O            7.11176983359496       -3.09708415766001       -2.58200773980929
C            8.51584397014123       -3.21631753983985       -2.61604752482176
C            9.10031931801791       -4.10542472296606       -3.50198113088666
C           10.48520494140314       -4.24158498649102       -3.63590628029656
C           10.99655016360775       -5.16961576968652       -4.60237469050350
C           12.18765386747251       -5.88829661507331       -4.58054765916794
C           12.91811167014395       -6.31112982860021       -5.77137204884964
C           12.48775013620660       -6.27271380372835       -7.08280891650693
C           13.32127433937247       -6.66301992502557       -8.11562381515157
N           14.07211565249708       -6.99823419665078       -8.94232546485710
C           11.20886283525553       -5.87403775995906       -7.42555998916095
N           10.11708759552853       -5.53430726839968       -7.65328268027137
C           14.22748252132465       -6.76754961993616       -5.32471423601206
C           15.33536105623604       -7.20533676613023       -6.04526646903118
C           16.45993828512361       -7.61955227483343       -5.37292631539363
C           16.49310556708664       -7.61797323484194       -3.98507305651961
C           15.40513646919190       -7.19420303687084       -3.26038866497997
C           14.26664404540563       -6.74737337921353       -3.92584336872432
C           12.97348772922937       -6.29649526390122       -3.41881553396763
C           12.55656692913818       -6.40896044413881       -2.10217901671635
C           11.22955590997817       -6.30355841666310       -1.72142757923294
N           10.10670294765322       -6.21105316389382       -1.42147412142137
C           13.46994966070849       -6.71001111603648       -1.10582512525661
N           14.30860883346157       -6.92089437720158       -0.32355983064672
C           11.33466740678381       -3.37713858444891       -2.86177168491065
O           12.72159812156912       -3.47043282244349       -2.97689996427880
C           13.40340596320445       -3.17537093676153       -1.75828036883964
C           14.81048074064424       -3.75845957654749       -1.71646436348533
C           15.33251911564626       -3.91683305582368       -0.28936464159709
C           16.67487510710333       -4.64225815115502       -0.21697801549833
C           17.11037906180337       -4.94406312615373        1.21684859319175
C           18.42875930602647       -5.69646503533924        1.28700213007304
C           10.74352841421475       -2.45432182647478       -2.00978213787368
C            9.36397991481963       -2.38742360521677       -1.80495115014744
C            8.79995629503496       -1.49712348807323       -0.80687077958874
C            7.85524447191975       -1.87798579066174        0.14662792286297
C            6.72836889545326       -1.07871313622311        0.61546594322512
C            6.49758925129769        0.26042095297570        0.38022001027684
C            5.31698555983598        0.86042619468714        0.77954976833045
N            4.28152404391034        1.30150723890872        1.08361933698705
C            7.38537068625983        1.03309199708137       -0.34409024993540
N            8.14512221052538        1.63402129817117       -0.99246600809062
C            5.81344009281712       -1.99635236116563        1.28384554477558
C            4.55021032321307       -1.78846930113820        1.82978180498257
C            3.87726329349480       -2.84413270035714        2.39724141225566
C            4.44836173719994       -4.10954933246897        2.43535912647625
C            5.69694876252277       -4.33048159662139        1.90491678721669
C            6.38373589292088       -3.27537416457221        1.31179891333011
C            7.71420654287143       -3.21482509105764        0.71512839939262
C            8.71235755238369       -4.16317872819129        0.88165546007777
C           10.05624435715763       -3.87662076906831        0.68904720547066
N           11.18335172455220       -3.60036856680995        0.57583940220403
C            8.41952444318810       -5.38464729156977        1.46279785389942
N            8.10479471732058       -6.38398629877050        1.97437047292514
H            1.89048158062335        3.29787423023457       -1.15112337496896
H            2.27879015719345        1.96740130248616       -0.06720091641841
H            1.17574951267223        1.70869952435119       -1.41274596921176
H            4.16247623894469        2.36732120425920       -1.66203745456531
H            3.09670763020195        2.14855997607244       -3.02451963435634
H            2.69735256310862       -0.22928975973865       -2.37529642443025
H            3.61019562932488       -0.00252477519446       -0.91311780350353
H            5.64362275263577        0.60061988288440       -2.34353410389944
H            4.73839953033023        0.14873175266545       -3.75735372460950
H            4.51026188178445       -2.19445820484563       -2.89615966332133
H            5.23975314126356       -1.73368011047008       -1.38888263451542
H            7.34738737448733       -1.05651812061098       -2.68696192717690
H            6.63648797688828       -1.81155185555403       -4.10418589433829
H            8.45186475944718       -4.72480670423055       -4.09398683643507
H           10.39748143652397       -5.25056243212314       -5.49592200387925
H           15.30418905646276       -7.22935815140418       -7.11893628819234
H           17.31821869886426       -7.96141903671267       -5.92761582964359
H           17.37500809843124       -7.96447861907373       -3.47196155710944
H           15.42006565621922       -7.23304671970221       -2.18763476738177
H           12.79849248844313       -3.60831288116485       -0.95066933629564
H           13.42264230734151       -2.08938401064219       -1.61638062781586
H           15.49356346114252       -3.15179562726199       -2.32082816145706
H           14.79318693192305       -4.73694736299416       -2.20536358353202
H           14.59485501132456       -4.47697262115708        0.29917970261086
H           15.40377187260983       -2.93700528569960        0.19614813454922
H           17.44527300299430       -4.05498499376354       -0.72939074096011
H           16.60871168184773       -5.58243371957336       -0.77618256448170
H           16.32182578516064       -5.52287975888324        1.71544268123425
H           17.17755215956631       -4.00575267095542        1.78168724068482
H           18.36481300096389       -6.65082623635416        0.76224519941572
H           18.72543139199556       -5.90732189079949        2.31616820713418
H           19.23415534800195       -5.12567389256374        0.82274543053076
H           11.36336706441623       -1.80251774896155       -1.42474833508924
H            9.00916373593664       -0.44345141224264       -0.92091828994011
H            4.11064312717058       -0.80851209393844        1.80962712755349
H            2.89992370531234       -2.68727613240561        2.82299090542264
H            3.91215469390327       -4.92392628552169        2.89415218845759
H            6.15097159076075       -5.30297752251098        1.96115161629464
