108
 energy: -20.940064065482 gnorm: 0.000317468157 xtb: 6.5.0 (97a52f5)
C            0.79582415111291        0.47474746178993       -2.70157153450074
C            2.31214488069514        0.36985650711724       -2.68340741477073
C            2.99385375781546        1.68630355926020       -2.30848898066409
C            4.51733110277740        1.57835972295224       -2.26858576951521
C            5.20201544663385        2.88464639405915       -1.87208417218482
C            6.71459391375119        2.75294243642140       -1.79774067874638
O            7.33958973903075        3.96312930902190       -1.38615525478045
C            8.73824910059862        3.93451959519311       -1.43505587597655
C            9.47325878332902        2.78105248420226       -1.66144498975260
C           10.86254258081729        2.76585367926605       -1.74822321052489
C           11.58045661309128        1.51630095070510       -1.87849212056806
C           11.26634174811735        0.38087610074027       -2.55634161007227
C           10.08804778664691        0.18490997246150       -3.41306768015537
O            9.26393835431811        1.05568633520448       -3.62421113360439
N            9.93164281571593       -1.06383043801020       -4.00091092318148
C           10.81648943417753       -2.12230899490421       -3.88108527311399
O           10.61151200848738       -3.18953289023567       -4.42918406787993
N           11.94902255436299       -1.90271192181987       -3.11625821335056
C           12.23925279474592       -0.71264175992864       -2.46765787449182
O           13.27624704074554       -0.56883162018545       -1.84260037069676
C           11.56205880508366        3.99587345634423       -1.58967311764860
O           12.95369441058054        4.15248137677647       -1.69603430374071
C           13.60809701610872        3.33274778661338       -2.66896171262270
C           14.76036746591474        4.05250222791449       -3.34964036585410
C           15.52765446216907        3.14503100711292       -4.30951283768950
C           16.73029415895276        3.83086764361520       -4.95555506953442
C           17.51909404068940        2.90362237126962       -5.88112298342848
C           18.72733233680785        3.58191866380857       -6.50611076508500
C           10.82136100391306        5.14760063410271       -1.31362795046142
C            9.44290471893206        5.14663743117521       -1.23743835463810
C            8.72771676405399        6.32210071116731       -0.98383980364386
C            8.03433782600150        7.30651944595325       -0.77100494274494
C            7.18539642259423        8.40034833466897       -0.53257292794103
C            5.93928640369721        8.46996709527633       -1.14869676810831
C            5.09445532558501        9.52661297953045       -0.91086442756280
C            5.45726038426378       10.55441618737767       -0.03675420473646
C            4.55721393206245       11.69507808445968        0.22765556720062
C            3.18711845120001       11.51685814338667        0.38292982148087
C            2.25389955983366       12.66312930686777        0.34324736541772
C            1.18547007362485       12.73862700480056        1.23880112730655
C            0.30502505655656       13.79567862307093        1.20008737898454
C            0.46598690535229       14.79760728480395        0.26420331694335
C            1.50955882244013       14.73704174515599       -0.63731465726344
C            2.39169390184873       13.68146926981321       -0.60253724330171
C            2.60470667760022       10.17512206346274        0.60191299674000
C            1.42491702091200        9.80035508597804       -0.04377067375163
C            0.87012309424405        8.55817212321774        0.16425887769443
C            1.47525952654211        7.66426291002061        1.02476197043624
C            2.63674438524536        8.01854875873569        1.68120113603349
C            3.19416341076415        9.26003008093005        1.47708076712492
C            5.17076298665173       13.03788647453337        0.32560944446994
C            4.80090531020280       13.93364738819969        1.33087799782828
C            5.38480721463991       15.17670454099468        1.41844123767908
C            6.35551924013617       15.55142555499111        0.51142747390437
C            6.74373579372290       14.67633049664182       -0.48311930376542
C            6.16152608657528       13.43259991660199       -0.57498977054574
C            6.71567230407938       10.48759025191341        0.56594630995721
C            7.56010174119708        9.43050432698131        0.32529981437124
H            0.32247127170300       -0.47215046344037       -2.96948662338171
H            0.46059539013874        1.22436822822433       -3.42021896629054
H            0.40909498348399        0.76980436763186       -1.72468988644505
H            2.68020168039173        0.03722938871947       -3.66266763507495
H            2.62729747108708       -0.41328558117651       -1.98159356896231
H            2.62422002491725        2.02666947299290       -1.33390172826049
H            2.69771783286018        2.47037326851650       -3.01536331150264
H            4.89123269875143        1.24847023046103       -3.24522386569779
H            4.81024248876161        0.78550102539763       -1.56996525613284
H            4.82437549826869        3.22792908688598       -0.90258259037531
H            4.94135069906041        3.67985424240170       -2.57914664587847
H            7.12632119117931        2.47519238853990       -2.77607174481279
H            6.99024072824859        1.97114325340055       -1.08139166203313
H            8.96366805763967        1.84432238271322       -1.77403910307488
H           12.50942312765797        1.46424584850118       -1.33343210152016
H            9.12253649725834       -1.19971514125527       -4.58635952124073
H           12.61577875133285       -2.65441092181069       -3.03562082597529
H           12.86896167649146        3.00527935770842       -3.40882893311412
H           13.98703940168592        2.44290648532436       -2.15606810179879
H           15.43794513249125        4.44526679508745       -2.58306377082859
H           14.38128921211546        4.93463961589388       -3.87764990133585
H           14.84991557467557        2.77330092243169       -5.08712643752659
H           15.86257671859734        2.24874057256676       -3.77365772729404
H           17.39404879264474        4.21996030374654       -4.17433736453965
H           16.39682699698187        4.71430812155151       -5.51268518234376
H           16.85245676202567        2.52061351105603       -6.66465431584133
H           17.83488943199751        2.01509261172180       -5.31894373087334
H           18.43053953635269        4.44767997652591       -7.10032701257429
H           19.28245975459539        2.90788885243898       -7.16181762684346
H           19.41902750360772        3.93845347587116       -5.74104288231850
H           11.35445267960589        6.07063003964567       -1.17948760250014
H            5.64474765266408        7.67694032670700       -1.81465716456971
H            4.13646323917973        9.57123076140959       -1.39874033337010
H            1.06242824540396       11.95723936200359        1.96863303088637
H           -0.51184573758875       13.84114810399684        1.90143569213511
H           -0.22398234627085       15.62491235495940        0.23561573346898
H            1.63366523735874       15.51739831980927       -1.37001465311532
H            3.20146146661854       13.63016874618385       -1.30934247767781
H            0.95574610272084       10.49810009802772       -0.71563903356669
H           -0.03870336072292        8.28300086955926       -0.34520739743817
H            1.03950652241331        6.69198038798638        1.18634758765733
H            3.10774832315754        7.32186614867693        2.35500193605301
H            4.09610287103285        9.53929253920994        1.99335145781253
H            4.04874386187151       13.63776184664728        2.04132906519121
H            5.08388476299783       15.85850848109144        2.19678959922988
H            6.81175116884145       16.52522138141125        0.58122321306306
H            7.50444477267054       14.96751244377515       -1.18865715962644
H            6.46147203759695       12.74933278458621       -1.35060519991576
H            7.01377230292231       11.27615277546583        1.23494441423064
H            8.52385766284527        9.38500687836767        0.80278404504861
