82
 energy: -15.393262373268 gnorm: 0.000511247230 xtb: 6.5.0 (97a52f5)
C            2.21749297540910        0.92345727308165        0.68659785685783
C            3.37426542875871        0.59365972806828       -0.24194663013392
C            3.49872005988649       -0.90322904614425       -0.52463002821029
C            4.67496684216047       -1.23559159452727       -1.44314803046233
C            4.98645905691823       -2.72964058458916       -1.49708824057350
C            6.25340544452083       -3.04735671499197       -2.28667660000629
O            6.80852238986006       -4.31136495434380       -1.91071782707852
C            8.19272714439813       -4.32713668899775       -1.66789933865202
C            8.90537937872396       -5.39645777939123       -2.20403891388130
C           10.29352867904930       -5.46521669020273       -2.17786949673218
C           10.98654749475926       -6.59680529309944       -2.76721724920669
C           12.04631522799192       -7.26168946513816       -2.23955533120518
C           12.80828617612523       -8.27203400011540       -2.97772830494598
O           12.59313981734363       -8.65248557187757       -4.10912689820894
C           13.89105393893749       -8.72366379466885       -2.09438213655035
C           14.91836154885119       -9.61655718860414       -2.33175169986041
C           15.82682704869037       -9.86244936908820       -1.32125729595450
C           15.70986506044644       -9.22915320079276       -0.09238198099408
C           14.68279511604607       -8.33805867270103        0.14765741052119
C           13.77527218059629       -8.08630740688197       -0.86361919252252
C           12.60710542958021       -7.19230804843745       -0.88131855689705
O           12.20638324590455       -6.56103585197065        0.07334907387788
C           11.01839174109847       -4.36045299484786       -1.63747262835902
O           12.40920267754332       -4.30305440939983       -1.80753754176753
C           13.12225356924046       -3.94308815611292       -0.62675361347770
C           14.56461537973128       -4.42396649870813       -0.68725928203816
C           15.28652572771361       -4.32921844693111        0.65349625624209
C           16.70284332352693       -4.90019582639420        0.60474397663292
C           17.41425799880032       -4.85448030645879        1.95683604344340
C           18.81804279248472       -5.43442784399341        1.90304923619588
C           10.31023627142297       -3.33941484383424       -1.01302353458979
C            8.91900206833157       -3.31126787143363       -0.96283626224222
C            8.26644964594551       -2.22244158169377       -0.24690495240608
C            7.30145236801392       -2.34290087691296        0.69915240442834
C            6.55284847634991       -1.21231587191873        1.25489057987982
O            6.63260507620780       -0.05232458549522        0.90667721318239
C            5.63587441216733       -1.76130503418425        2.26195992132472
C            4.71002809336416       -1.12181162289504        3.06396227575821
C            3.93085316493422       -1.88451391814910        3.91096608443829
C            4.07452148210603       -3.26363750291922        3.95737237281253
C            5.00153558228170       -3.90469314662195        3.15948999315255
C            5.78149798895851       -3.14429901501124        2.30967273206077
C            6.82644437184280       -3.56196526318294        1.36267526516987
O            7.21367842505426       -4.69857417515584        1.19753765633764
H            2.14665675562948        1.99406282657030        0.88845942158894
H            2.32466657108668        0.41490077872377        1.64589525646702
H            1.26550568535068        0.60544583019679        0.25881591705306
H            4.31809568004033        0.95517023016079        0.18835683618026
H            3.26697093783988        1.13495919020317       -1.19048497789121
H            2.56650603418632       -1.28677826975131       -0.95511399730439
H            3.61499822167127       -1.43887257747272        0.42463749638499
H            5.56306840769977       -0.69758679482957       -1.09004039634520
H            4.49093562974124       -0.84985186436791       -2.45236149586372
H            4.13630263802714       -3.29162816385998       -1.89935149340442
H            5.11452414594391       -3.11198010783769       -0.47886621231777
H            7.01025566816011       -2.27105021112328       -2.14530636912709
H            6.05467559329583       -3.07918616438943       -3.36415398583790
H            8.34844098646371       -6.18710373801625       -2.67190933095941
H           10.64143547913379       -6.94201061678655       -3.72999960646523
H           14.99147962056388      -10.09882419590809       -3.29093731663893
H           16.63379415627613      -10.55621424638810       -1.48943744632470
H           16.42573637471246       -9.43738312786564        0.68538562280645
H           14.57065362725694       -7.84476842284412        1.09719140019233
H           12.59851679544967       -4.41869027660344        0.21260382643363
H           13.06429807262204       -2.85813278119107       -0.49053065871387
H           15.10791142922732       -3.86879785714664       -1.45969322815106
H           14.56671280442539       -5.46396581120539       -1.03106643302576
H           14.70506410200645       -4.86012758592863        1.41664194371959
H           15.31446995021025       -3.28567680132863        0.98767883312114
H           17.29342526326700       -4.35768898567702       -0.14264728342846
H           16.66856245749590       -5.93493796230252        0.24384020067845
H           16.81225444918023       -5.39227587076491        2.70057678199535
H           17.44684400872594       -3.81724177497575        2.31420286462449
H           18.80155742977284       -6.47768483515868        1.58378818637539
H           19.31518922062513       -5.39574123827861        2.87433770482053
H           19.44242237598158       -4.89034375903572        1.19269263067980
H           10.85527015897920       -2.53053956663282       -0.56427299722421
H            8.58459054850742       -1.21658694177461       -0.47603223834701
H            4.61523098593491       -0.05117041371911        3.01791802223203
H            3.20433644266771       -1.40217178724433        4.54364434475650
H            3.45736788713172       -3.84202407945021        4.62471153456187
H            5.12990308266347       -4.97285731831039        3.18255185732728
