116
 energy: -21.344067820290 gnorm: 0.000730245887 xtb: 6.5.0 (97a52f5)
C            0.77288401900170       -0.25186577567417        2.21062201218963
C            2.28715669061890       -0.27885650296416        2.07915349682133
C            2.94254398184112       -1.31624900335722        2.99135618288199
C            4.46487891555023       -1.35105059133806        2.86245229183094
C            5.11604380613919       -2.39083804216945        3.77158820660795
C            6.63134592188097       -2.43327119558097        3.64151313532434
O            7.20265725559175       -3.41311925476488        4.49989632007714
C            8.59489906786020       -3.49666188219439        4.46145962972428
C            9.20674167894048       -4.41785118623272        5.31725677932650
C           10.56609756992331       -4.58514886180229        5.33074098514841
C           11.39684214508122       -3.81266702792279        4.50786540149326
C           12.85983605940532       -3.93762110342516        4.56154116094453
C           13.47888978986668       -5.19523415987280        4.79899681452897
C           14.79913722826602       -5.26018123958818        5.45237516346292
C           15.75594534308547       -6.20394652135087        5.06067694275412
C           16.98640667495193       -6.25862315497094        5.67285829252877
C           17.29506490624124       -5.37738035831822        6.69132587056571
C           16.36538585637381       -4.43940079504474        7.09702869771161
C           15.13367180034370       -4.38013964008323        6.48856774639555
C           12.82872518057721       -6.44479197611317        4.41319925154152
C           13.06835151018493       -7.63016248539731        5.12929424633172
C           12.46457765241486       -8.80355969093526        4.77787379447037
C           11.58959096159468       -8.86942148630686        3.67768694379877
C           10.91292119286251      -10.09103342233800        3.39710506128890
C           10.07723587462110      -10.33133052933261        2.33442423646308
C            9.21119488163737      -11.43530289572278        2.22713816801736
S            8.59866458741705      -11.97268491795880        0.67946301339315
C            7.69583522930112      -13.28831118471011        1.40559553990809
C            6.91619826405772      -14.24942478797772        0.78372269581799
C            6.28469716372881      -15.20283737794549        1.55088317205122
C            6.42941695102861      -15.20206092648759        2.93347755852669
C            7.20110707026173      -14.25154792465528        3.56065085431833
C            7.84598828485526      -13.27516324447846        2.79428093662357
N            8.68014319579153      -12.20994489067294        3.22944097438333
C            8.72754767025742      -11.83031811814936        4.66141053921393
C            8.18542179462849      -10.41824460918133        4.90368239402281
C            8.80457920287255       -9.71704843788594        6.11415200435891
C            8.42812594552295       -8.25216589359228        6.19519536428998
S            9.31605013943359       -7.40058347213291        7.56660753308547
O            9.24846315380030       -8.40554234777086        8.66065188783581
O           10.64668525457003       -7.15648108721296        6.94820571907853
O            8.47507551936488       -6.18220787872568        7.68830265496895
C           11.35735956696184       -7.68723080137439        2.95023211231650
C           11.95783286517446       -6.51301948241934        3.31044490313877
C           13.67470069757604       -2.72591739822113        4.40640185962327
C           14.94170543941907       -2.77432883218187        3.80931214493971
C           15.69990233941234       -1.64340040584895        3.66578645265474
C           15.23890464704222       -0.39835694503740        4.10784141350835
O           16.08048413151253        0.69979566207228        3.91933230118660
C           15.56670522398958        1.93973684385390        4.39176301047996
C           16.54288253524502        3.08155565187450        4.15100697060957
C           16.02286094902734        4.42953562036862        4.64536676115777
C           17.00544250039327        5.57333055119507        4.39717156822353
C           16.48988141450542        6.92546245078468        4.89075325539553
C           17.47208784350458        8.05766103088795        4.63664045249228
C           13.97267280801079       -0.34549125698658        4.70293077645223
C           13.21285140162282       -1.47741379543245        4.84536246942658
C           10.78251712470727       -2.88167301178503        3.65893722788009
C            9.42051400444164       -2.73164182036559        3.62960815706142
H            0.31705853726517        0.49279994785554        1.55463774664581
H            0.46949734065522       -0.01842848424462        3.23263370958228
H            0.33771935974608       -1.22070149292645        1.95952573130917
H            2.70337651144898        0.71263342887301        2.30047152057611
H            2.57235658050799       -0.48018844024806        1.03828900166348
H            2.53226215569960       -2.30947326873949        2.77309706710908
H            2.66584850487155       -1.11716913037865        4.03357915588348
H            4.87664034300135       -0.35913126826821        3.08372172659213
H            4.74206759820951       -1.54907745345968        1.82016254275429
H            4.70995334112247       -3.38557455974490        3.55674996012698
H            4.85135607634074       -2.19578376165547        4.81684330676133
H            7.06478174325008       -1.46043832541259        3.89814102526359
H            6.92099018596298       -2.67046235932029        2.61205776961181
H            8.58372930478809       -4.97536244144871        5.99537625671514
H           11.00329921174623       -5.32192534147646        5.98336905317237
H           15.52083717057501       -6.88220963535184        4.25869744547879
H           17.71216766718361       -6.98985812889141        5.35693799315293
H           18.25975769239475       -5.42233330790945        7.16961922222415
H           16.60540521733364       -3.75369877879311        7.89292730579599
H           14.40583108026352       -3.65547658493706        6.81016111710603
H           13.69917651534797       -7.59093465013160        6.00037862252086
H           12.63621996064189       -9.69114701153034        5.36213153172102
H           11.07987219888041      -10.89075595664855        4.09368884862014
H           10.08603821639158       -9.64242622204987        1.50708555107987
H            6.81477129051651      -14.23845016094010       -0.28773205377347
H            5.67667765510969      -15.95548852333559        1.07653463057730
H            5.93272463865930      -15.95754898994825        3.51998432734001
H            7.31943342522419      -14.26958865712763        4.62838907344989
H            9.75871438048928      -11.92474706884614        5.00665686836348
H            8.17063363477776      -12.55458921395282        5.25953114091272
H            7.09244549002857      -10.43797586579195        4.98967159383117
H            8.37523854034003       -9.80698262025175        4.01469034472074
H            9.89799079166461       -9.79888970043706        6.06890515960915
H            8.52141712703739      -10.23148256179640        7.04135105199662
H            7.35622214602755       -8.12643010823607        6.34911265502625
H            8.68066453376224       -7.73375411945061        5.26967101406193
H           10.67779671102128       -7.70372608243512        2.11722669839205
H           11.76915808012664       -5.61813224462595        2.74369198859222
H           15.31426109309047       -3.71935312158260        3.45467685093356
H           16.67149636435221       -1.68947348642783        3.20686576877823
H           15.35617896644466        1.83596122819431        5.46187031677001
H           14.61803536046456        2.13352138577023        3.87930631328565
H           16.77316318884272        3.13729832814932        3.08116501283563
H           17.49711997159698        2.84639004639281        4.63558991813518
H           15.79359400143787        4.36562544257206        5.71585446080186
H           15.06494127713214        4.65453991908742        4.16126572317712
H           17.23437031268705        5.63555526880491        3.32647386089187
H           17.96355721675081        5.34642608261183        4.88006746652265
H           16.26110226598730        6.85690003493498        5.96242556250676
H           15.52790085357619        7.14435701671194        4.40887869499665
H           18.42435258494456        7.87387364399473        5.13739445484022
H           17.09321036415982        9.01775541827062        4.99356124686554
H           17.68459144894211        8.16413082934993        3.57134857720529
H           13.58844222415703        0.59393687264495        5.05573078989665
H           12.24852930903607       -1.42044005279856        5.31984626600426
H           11.40232547410524       -2.28655934233264        3.01072232167445
H            8.98401587961602       -2.01256454912455        2.96097717835237
