41
 energy: -7.724551238433 gnorm: 0.000599123667 xtb: 6.5.0 (97a52f5)
C            0.90781031140975       -0.43240998382274        0.02901149257475
C            2.42018997979109       -0.28587590852304       -0.01399541742255
C            2.87280615804434        1.17144178740703       -0.11135185439108
C            4.39314465469894        1.32128975008215       -0.16003142329420
C            4.84968635262814        2.77747717166507       -0.24715811923059
C            6.37309842949407        2.91804119591265       -0.29752028576552
C            6.90122918756770        4.32650737636939       -0.36729325147140
C            8.27267561516529        4.52511683662098       -0.44001804139887
C            8.80712787020207        5.79318719421860       -0.49777474044640
C            7.98324835336087        6.91477554151375       -0.48394333123663
C            8.55392646716837        8.27996809237550       -0.54858996576360
C            9.59764949776591        8.57681697171180       -1.42289073021128
C           10.12638191705885        9.84542320512252       -1.48545271064797
C            9.63134073358593       10.86139287741628       -0.67647766263527
C           10.16939233832041       12.15546632813399       -0.74318448984928
N           10.61077247957919       13.22897513736037       -0.79821079971829
C            8.59152600706360       10.56934694028064        0.19840328536625
C            8.06151525652539        9.30123239831923        0.26172749474081
C            6.60742629036504        6.71543320791807       -0.41118884801259
C            6.07788951207326        5.44439847585536       -0.35461805901208
H            0.59937754683285       -1.47763160623382        0.09946312091991
H            0.44498372594577       -0.01335579518185       -0.86619173209871
H            0.48450440643079        0.09319512861499        0.88673010653274
H            2.83023920222409       -0.84975963463685       -0.86222760758684
H            2.86958683434048       -0.74566239053685        0.87615557964663
H            2.47359687963562        1.73863535169411        0.73815872968750
H            2.42815581400910        1.63709280522691       -0.99916451514641
H            4.79136566853662        0.75864637492397       -1.01305310948246
H            4.83709659191761        0.84931376072296        0.72489767391222
H            4.45477716333675        3.33366779367282        0.61127233536043
H            4.40510360237059        3.24812285359951       -1.13221519463577
H            6.75710772653627        2.35874263502603       -1.15850816932431
H            6.80798271101976        2.42733928551824        0.58089960583539
H            8.92316215001882        3.66712124712821       -0.44904242405963
H            9.87404394358099        5.92830576495958       -0.54224876023761
H            9.98064730647842        7.80058697971550       -2.06251880262196
H           10.93046029718224       10.06858581820286       -2.16598803587157
H            8.20771783734550       11.35366616753857        0.82843179707360
H            7.26422672698230        9.08359470728235        0.95118150340207
H            5.95534301296361        7.57182392716645       -0.41286463304799
H            5.01061344044343        5.31997422965611       -0.30345001043100
