95
 energy: -18.378234115861 gnorm: 0.000934417741 xtb: 6.5.0 (97a52f5)
C            0.34193609467252       -2.49104457890618        0.25635195456824
C            1.20949715774916       -2.45650307133937       -0.99176616720069
C            2.36299888644158       -3.45881074558682       -0.93918673258282
C            3.24559553898418       -3.42374982887433       -2.18663596275186
C            4.41275440876412       -4.40731805179677       -2.11823633526678
C            5.31706346609587       -4.35509643059250       -3.34995134404160
C            6.48277924548069       -5.29255688548036       -3.24739617697281
C            7.60467702069612       -4.93594248197642       -2.50987535997570
C            8.65390949525964       -5.81174695726759       -2.35758537842603
C            8.60022353240476       -7.07564149771736       -2.93402817212955
N            9.65487642825893       -8.03619014010503       -2.70200967043711
C           10.75822064365410       -8.22738699959859       -3.43871967554615
N           11.37431230664973       -9.39542718449611       -3.04199734622804
C           10.67217768060013      -10.00335482481183       -2.02157107828001
C           10.80710040054914      -11.25795964781593       -1.31716198993477
C           11.75794795825299      -12.24111718782491       -1.60329982171789
C           11.79508308790150      -13.42176211341926       -0.90360081011585
C           10.88285485697415      -13.66793120327664        0.11270850243060
C            9.92133371642763      -12.73915496007788        0.41588369550447
C            9.84908898725514      -11.52945315127139       -0.29186320965707
C            8.84568968585972      -10.60154275581597       -0.07963228510320
C            5.99321322151263      -11.10933555127194        0.07376577096295
C            5.78613591138857       -9.91801720458720        0.64180974929046
C            6.43345682672943       -8.71903284030588        0.34022009477791
C            7.55958939221253       -8.52090159930270       -0.46907334857392
C            8.60681445430464       -9.41889948082086       -0.76888797187478
C            9.57379934238049       -9.12818355522969       -1.76896824500132
B           12.63156706435560       -9.86993938927976       -3.81312433526912
C           12.99448286113361       -8.84476842904298       -5.01424758097210
C           13.87592946258365       -9.92409980750882       -2.78187560271387
C           12.30620887723858      -11.28520455551021       -4.47587390468165
C           10.97466339181067      -11.57800405946530       -4.58029809456869
C           10.54812320930902      -12.85437523540647       -4.98688032182413
N            9.17448703244065      -13.17865907473089       -4.94189609621215
C            8.17944589737225      -12.18497697118871       -5.12544122382797
C            6.88935532520044      -12.28927454804710       -4.48381569702285
C            6.67085836037322      -12.72626862387985       -3.20719028298503
C            7.62905597781278      -13.02413362355901       -2.29749949578795
C            7.57185670120248      -10.13292815562351       -6.28617969891055
C            8.42276435122315      -11.12821718841986       -6.01468461180734
C            8.79627684939495      -14.54262727153302       -4.70644665690078
C            7.71485194210834      -15.11385552915983       -5.38021505116146
C            7.35245182609374      -16.41969773613596       -5.14581253080933
C            8.05678178446033      -17.18333877015156       -4.23302713909737
C            9.12662987645666      -16.63240062280321       -3.55191262388876
C            9.49371858812393      -15.32802696064106       -3.78443403195167
C           11.53099864057418      -13.80248266507189       -5.34497954894374
C           12.86101407052462      -13.47402908867125       -5.27154108473835
C           13.20648426604669      -12.23550513859557       -4.83267206596379
C            7.48638120604518       -7.43116866801554       -3.68593064065708
C            6.43945517302030       -6.55165100578988       -3.83364022166818
H           -0.47671667468459       -1.76963604728877        0.20745839673238
H            0.92668402556829       -2.26358673084633        1.14969415209721
H           -0.09924824572988       -3.47864613351882        0.40365997751347
H            1.61350151826723       -1.44688909282494       -1.14247099616326
H            0.59873152121783       -2.65317265302498       -1.88247433429713
H            1.96619784526077       -4.47097394882206       -0.79696162052996
H            2.97574658846366       -3.26645168689406       -0.05049928063867
H            3.63032636935729       -2.40772592119145       -2.33564329901381
H            2.63856051417566       -3.63182333339649       -3.07579003766868
H            4.03296801753981       -5.42751351373742       -1.98481560698798
H            5.00921716122248       -4.20781539721640       -1.21974845736406
H            5.68666492471693       -3.33385925025092       -3.49797135061053
H            4.73644244899529       -4.58609341990578       -4.25033930702349
H            7.64071660140977       -3.96469845363572       -2.04690142008965
H            9.51954647947913       -5.54160516261891       -1.77812740724139
H           12.43344316800640      -12.09979209766333       -2.42340333205564
H           12.53302415181057      -14.16737813345649       -1.15101946590783
H           10.92222655325100      -14.59823390465474        0.65516272808840
H            9.19321309211950      -12.93253014054655        1.18412795554005
H            6.53416566818964      -11.65095781147192       -0.61952019343499
H            4.97082751811505       -9.86590324842016        1.35278781274792
H            5.96422833509784       -7.82441103537103        0.72432775665775
H            7.67931534504201       -7.53242497682398       -0.87816545678889
H           13.17828385668722       -7.85076126272321       -4.61818846687421
H           12.15362285469533       -8.80252477156442       -5.69994268505655
H           13.87437659608488       -9.18773738319647       -5.55040221015462
H           14.18004527116274       -8.90605192779798       -2.55794560487473
H           14.70978843781267      -10.45063739406571       -3.23643002165648
H           13.61434599897872      -10.41078811930230       -1.84824324501807
H           10.24712778973277      -10.85937297821792       -4.25291386565099
H            6.04092986650701      -11.94639390551349       -5.05374875284898
H            5.64468693708236      -12.79331602787778       -2.86910091529271
H            8.64497160619151      -13.04861188175428       -2.11446510018671
H            7.33732054190101       -9.26538376666498       -6.79782661725458
H            9.37249749268279      -11.13466268431934       -6.52892298541600
H            7.17519536208334      -14.51695432890139       -6.09417170663453
H            6.51741392519109      -16.84898916129183       -5.67478704980950
H            7.77033958036310      -18.20593219842130       -4.05002561621885
H            9.66998771702521      -17.22424592544104       -2.83366015606794
H           10.30518138482357      -14.88420040884127       -3.23452137195715
H           11.22492439183928      -14.77615461491311       -5.68366907773937
H           13.62716483159012      -14.18438846166242       -5.54445720145291
H            7.46484170938244       -8.39992995578061       -4.15427775322068
H            5.57102843913177       -6.83773670043707       -4.40151095342252
