79
 energy: -15.398896958547 gnorm: 0.002550921105 xtb: 6.5.0 (97a52f5)
C            4.95585183588169       -0.90472736812817        1.34249086424654
C            4.85393397599911       -0.79578220641881       -0.17062124318456
C            5.50913796381839       -1.97182622491547       -0.89586219146232
C            5.39364842361405       -1.87558280067374       -2.41657675659772
C            6.04683893756653       -3.05042373417002       -3.14441049673424
C            5.90181087586774       -2.96759285473544       -4.66479249653316
C            6.52767677253308       -4.13233570101792       -5.37443097777876
C            7.77402371802545       -4.01641079297585       -5.97566078890270
C            8.35460616310390       -5.09476732311086       -6.60209335305821
C            7.71562231622358       -6.33247115821396       -6.63147952324202
N            8.31032336607615       -7.43542747469911       -7.31041551305768
C            8.87502982993804       -7.20834250001374       -8.66895709851778
N            8.43109045858976       -8.35262558958317       -9.47500490097053
C            7.87217585023453       -9.25672489205465       -8.57707994103395
C            7.39399907314116      -10.56883425574255       -8.87751743180644
C            7.38518384531338      -11.04992053914207      -10.19462962424675
C            6.91134945967542      -12.30053009647024      -10.47813468358154
C            6.43169279819081      -13.11014063887072       -9.45329583993378
C            6.43159453521398      -12.66510762839020       -8.15695960247189
C            6.91090131101131      -11.38717517594562       -7.82289122256714
C            6.93676983392011      -10.89533022097405       -6.45123956312642
C            6.52961100230433      -11.67729531685760       -5.35741439374741
C            6.59876211261157      -11.19900335102193       -4.07435535165362
C            7.08569196500622       -9.92075022959605       -3.82244173685556
C            7.48982405839171       -9.12770418648236       -4.85970586856805
C            7.40944011657355       -9.58470335285426       -6.18407249397699
C            7.83319957024877       -8.77730455161019       -7.27862802823482
B            9.13679100700943       -7.15990796904663      -10.47020252291088
C            9.36072160866427       -8.16793887989999      -11.78056297468391
C            8.17431824676869       -5.94117180735222      -10.96366150016240
C           10.66419726953669       -6.67603039084280      -10.08293588517829
C           11.95725425441290       -6.31309873445576      -10.45552072433123
C           12.91699262573610       -6.16165961082262       -9.49984809172523
C           12.62660784943573       -6.38826890334418       -8.13104975744057
C           13.61600256668111       -6.27082989229441       -7.12771008263149
C           13.31709629361804       -6.51996764555424       -5.82224445177134
C           12.02157203615252       -6.90255391926442       -5.44989949742623
C           11.04621600188587       -7.02239637898380       -6.39022188308227
C           11.31378391297910       -6.76076254912181       -7.75133441657402
C           10.32730810487525       -6.87724197891261       -8.77862087903721
C            6.46230598747371       -6.44189592287474       -6.03288968885635
C            5.88235687066701       -5.36058886021538       -5.41127628578463
H            4.48562863597939       -0.05759609229505        1.84753819961850
H            5.99709720765248       -0.94188088735479        1.66792406054291
H            4.47325834364297       -1.81422338449124        1.70540002147469
H            5.31081070591612        0.14180320976049       -0.51262405556733
H            3.80139759498344       -0.72350622129542       -0.47382670389187
H            5.06028055694478       -2.91121849634311       -0.55230867147860
H            6.56496113835207       -2.04070731511066       -0.60913866012318
H            5.83754664387774       -0.93367559539227       -2.76128757163612
H            4.33612390687960       -1.81100257143526       -2.70076678265761
H            5.61564363643920       -3.99367837886734       -2.78604150967382
H            7.11027162602094       -3.10709042384728       -2.87948463570863
H            6.34414784999064       -2.03325980933410       -5.03045151123421
H            4.84062231603574       -2.90966632303144       -4.93492406845196
H            8.28570969065495       -3.06990332100331       -5.94685424171393
H            9.31589314095105       -4.99619530722952       -7.07326600247759
H            7.75366027863880      -10.41547004220855      -10.98034035435327
H            6.90387682448132      -12.65908332962379      -11.49488118003262
H            6.05700838094542      -14.09417027383381       -9.68394671289114
H            6.05470937870993      -13.31092037186143       -7.38498773670618
H            6.16476383045386      -12.67463549942940       -5.52175070514703
H            6.28308311269810      -11.81994779661473       -3.25172610216286
H            7.14748320581791       -9.55876397903763       -2.80907719699526
H            7.88379592801437       -8.14480482895479       -4.67116331934339
H            8.39836557977050       -8.50461264020195      -12.15342087507275
H            9.93737213369007       -9.02563516467745      -11.44694880713504
H            9.89717889852067       -7.66529669240812      -12.58016640285469
H            7.18577515697624       -6.33393358121905      -11.18194979611534
H            8.57854433617779       -5.47053668067462      -11.85509461922766
H            8.09075771234362       -5.19639871956615      -10.17787514473390
H           12.18201846457368       -6.16494607177001      -11.49746305663198
H           13.91939952332872       -5.88561171327259       -9.77851595906470
H           14.61397003021004       -5.98497752527140       -7.41250022866422
H           14.08186955930536       -6.42937756804940       -5.06801736497645
H           11.80048358740799       -7.10487137822001       -4.41457502971728
H           10.05699458536876       -7.33083579202688       -6.11065162427016
H            5.94210705200443       -7.38144019152690       -6.08173705037815
H            4.91540464065575       -5.45905563503447       -4.94811970237903
