78
 energy: -16.336482289348 gnorm: 0.000542785388 xtb: 6.5.0 (97a52f5)
C            0.85791770431301        1.37369257844165        0.08614307912358
C            1.48672122361987        0.17267704336011        0.05405638732029
C            2.93568308937335        0.06259354227047        0.23362740951765
C            3.66227889856698        1.03591361829929        0.93337712665497
C            5.01935335240979        0.92456449578328        1.10099179900219
C            5.72085761010239       -0.15872505856015        0.57243916222958
N            7.13715435411098       -0.26778669820199        0.74084154244802
C            7.75725921652109        0.19777519693381        1.94963947389516
C            8.99327782183289        0.83809961937470        1.91560979820152
C            9.58894961919740        1.27743251860835        3.07660468903083
C            8.96200796540584        1.08467931610062        4.29243651855046
C            7.73553553553812        0.45106485447061        4.34264160967082
C            7.13778074046099        0.01147110809785        3.18286102059415
C            7.94812975776808       -0.82798175573732       -0.30337869172817
C            9.05568751010576       -1.61557339910176       -0.00008361201507
C            9.83948131251894       -2.14116875355784       -1.00274548149388
C            9.53221866862698       -1.89009455822400       -2.32593811017498
C            8.43677333559053       -1.11057130015339       -2.64300515159710
C            7.65166065839221       -0.58409062674576       -1.64197888956181
C            5.00495710021938       -1.13225426550521       -0.12381485907305
C            3.64653297434770       -1.02828428219692       -0.28512754768969
C            0.67113081027829       -1.06486324461718       -0.21426054441023
C           -0.80959770705990       -0.93289404970763        0.20231848678983
C           -1.38805635506959        0.43491829373205       -0.04865189557881
C           -2.83278264416879        0.59121926838273       -0.22784179493935
C           -3.37027225449968        1.69269962553532       -0.90795563168840
C           -4.72503169019668        1.83446725016336       -1.07077266085539
C           -5.61207350145121        0.88867165623288       -0.55732022739278
N           -7.02460631448184        1.04496315107883       -0.72001994055582
C           -7.55007875958746        1.64453905650754       -1.91458719933929
C           -8.64422712935138        2.50400255315501       -1.85871217967614
C           -9.15092000095656        3.07136488704000       -3.00635877369353
C           -8.57507526672674        2.79052284060319       -4.23033494026366
C           -7.48893126444329        1.94004322650181       -4.30210587421955
C           -6.98038874999558        1.37186703466511       -3.15574333623654
C           -7.92388422094484        0.62448872236659        0.31743340754520
C           -9.15963710284313        0.06413889871387        0.00437369472600
C          -10.02671189268598       -0.32592007133632        1.00031160095911
C           -9.67635877388029       -0.16366190077026        2.32662327864023
C           -8.45406614084160        0.39090394664982        2.65339979302845
C           -7.58554536312632        0.78162630741782        1.65907073004325
C           -5.08521406327143       -0.21165199250728        0.11840935885301
C           -3.73035640227273       -0.36058510796926        0.27524932618211
C           -0.55273111054802        1.50313539875585       -0.06382309611300
H            1.44402909101298        2.26955168116739        0.19218153794542
H            3.14252952440144        1.87039204257623        1.37016334181663
H            5.56476404323022        1.68172625139420        1.63684091150601
H            9.47247140210547        0.99187643074635        0.96448745972709
H           10.54548310986770        1.77259778630000        3.03659229866910
H            9.42953551442054        1.42786580980745        5.20094626933343
H            7.24654910388726        0.29880652307396        5.29106412841342
H            6.18745189044895       -0.49223586142931        3.21575781829994
H            9.28555295343433       -1.81294318797857        1.03242826104968
H           10.69403701711858       -2.74935191906371       -0.75460656118098
H           10.14699531956468       -2.30089178500987       -3.11019967250511
H            8.19760499037924       -0.91222537777780       -3.67510088308827
H            6.80429269938463        0.03417229583222       -1.88198855943591
H            5.53713744732906       -1.97710166332924       -0.52484471310082
H            3.11827400559140       -1.78653316357042       -0.83637730208689
H            1.13108944845284       -1.91558755410365        0.30401000726725
H            0.73364007708236       -1.29655724279973       -1.28413820265161
H           -0.91391336643114       -1.16328303544018        1.26924029053041
H           -1.41507317422090       -1.67992400127980       -0.32611527083979
H           -2.70762110150595        2.42612273111219       -1.33245893172106
H           -5.12355212032774        2.68852386412022       -1.58997845229627
H           -9.08303799023492        2.72463271226372       -0.90125409512347
H           -9.99779934276486        3.73566690732165       -2.94941885746939
H           -8.97291659544599        3.23441610649091       -5.12834004405772
H           -7.04008804741562        1.71910832760413       -5.25686670691685
H           -6.14136770796861        0.69991543540929       -3.20558226861223
H           -9.42380062930147       -0.06532979455370       -1.03066849140506
H          -10.98033459752904       -0.75827591256819        0.74451656491180
H          -10.35624491196469       -0.46794664172415        3.10568230610101
H           -8.18099721461661        0.52034808578826        3.68800862397522
H           -6.63752280995546        1.22625603615687        1.90697131268366
H           -5.76236183864611       -0.95139541514529        0.50844508557267
H           -3.34895155779824       -1.21124397720468        0.81263681551515
H           -0.96723718248091        2.49149856147944       -0.15659287553563
