73
 energy: -14.214557878890 gnorm: 0.000515472272 xtb: 6.5.0 (97a52f5)
C            1.28103634647394        1.21321036398169        0.58885905093098
C            2.47517464907230        0.39870808874033        1.06053899925980
C            3.12286766071305        0.97148994434394        2.32225447265293
C            4.31033961764719        0.14266665561978        2.81107889389019
C            4.95342394201713        0.70315989051474        4.07924638834216
C            6.10652122275371       -0.16130768464506        4.59046043133771
C            6.72352812293088        0.36079972123598        5.85484649892826
C            6.03976422154009        0.26429221862341        7.05823849736703
C            6.60012521493213        0.73317688315422        8.22525347475515
C            7.86416510342507        1.30438346988230        8.21678966418513
N            8.46561425427025        1.75337202743361        9.44872912637343
C            8.47631263464292        3.07395063276214        9.89149227412899
N            9.04267572853031        3.11409008680378       11.11241473960716
C            9.42487315762465        1.84717832687916       11.50966327142314
C           10.05174602244068        1.34229818164638       12.70283630216173
C           10.40105060221621        2.18103675845975       13.76439458728957
C           10.98749938399190        1.67994035409561       14.89591872483139
C           11.24277144314860        0.32110054347477       14.99732270686996
C           10.91127427610581       -0.52386860951427       13.96860529916626
C           10.30932832392584       -0.04677862470858       12.79525583662069
C            9.95036497511280       -0.93945981733252       11.68747808779574
C           10.20320979689511       -2.31832012394197       11.72972901660788
C            9.86945483684491       -3.14031358314875       10.68292489476623
C            9.26982683396661       -2.61870441780298        9.54669508583253
C            9.00751950656679       -1.27786117296630        9.47059783701363
C            9.33328062869640       -0.41820079173498       10.52526710032220
C            9.06803056786297        0.99463498226217       10.45892571140772
B            9.00465068821972        4.61829251198295       11.52000670696132
C            8.08640862287924        4.82443330874710       12.83241308958483
C           10.50389542571960        5.18545307185598       11.71446943947393
C            8.31260777128282        5.37270252532523       10.27083526444309
C            7.98366440359521        6.66848814028095        9.96053051615434
C            7.37926816408521        6.94709944951953        8.74670774876082
C            7.10539816440174        5.93055092769639        7.84564894533571
C            7.43391592637292        4.62694899741017        8.14893898008627
C            8.04055336312136        4.35394169915320        9.36913384595534
C            8.54514984894431        1.41798184915813        7.01374111365638
C            7.97863803127548        0.95461245603414        5.84672210046464
H            0.82877732499486        0.79458172550758       -0.31331570341054
H            1.56836727977669        2.24237633544552        0.36488106571221
H            0.50456203431156        1.25580003146373        1.35521931394316
H            3.22827937047343        0.33427013115419        0.26374084227843
H            2.17277526665829       -0.64029576148100        1.24848833537270
H            2.37281750652011        1.04529707406282        3.11942750755150
H            3.44378701360639        2.00402370071509        2.13727797716063
H            5.06329178978963        0.07028583119461        2.01662559585551
H            3.98662535615655       -0.89006364996676        2.99048190397265
H            4.19357886046761        0.80312572359602        4.86385005928466
H            5.31024581625281        1.72436449178195        3.89776723822758
H            6.87593431954605       -0.24887217773109        3.81461854483266
H            5.75406339035050       -1.18520147600663        4.76220276224970
H            5.06319979155453       -0.18900675391302        7.07232174710451
H            6.07419177849080        0.65240374833051        9.16066257808416
H           10.20270029190781        3.23207014309777       13.68507242513018
H           11.24940665865272        2.33945093185277       15.70740505864929
H           11.70371101571920       -0.07128068006309       15.88935488977507
H           11.11934079539615       -1.57283550836886       14.07384146259734
H           10.67103230684339       -2.74911319792718       12.59583615820201
H           10.07497126941751       -4.19700493157222       10.74119354025587
H            9.01133297412048       -3.26843258957021        8.72631196047597
H            8.54750328090085       -0.87284660668609        8.58905701163246
H            8.45842837978535        4.31723161048203       13.71581744907322
H            7.10169122349960        4.43069743659828       12.59747006412925
H            7.99745264676464        5.88494146095297       13.05009863647096
H           11.05714314894757        4.69734515781262       12.50933263559076
H           10.46721460788803        6.25210678508874       11.91688719673491
H           11.03042301515896        5.02336169581995       10.77833414690275
H            8.20061092871392        7.45348620073686       10.66416132928867
H            7.11959375718935        7.96394549794229        8.50096555501675
H            6.63539897229307        6.15997699861426        6.90326866214217
H            7.23379465175836        3.82376514327365        7.46235132085499
H            9.52317526345799        1.86700525787510        7.01156679303981
H            8.51245842835170        1.04400097868136        4.91600921101312
