18
 energy: -2.554214501928 gnorm: 0.000733460585 xtb: 6.5.0 (97a52f5)
C            1.01785505330994       -0.06113920465247       -0.00652607067633
C            2.53746261192753       -0.06697249628486        0.02944192474827
C            3.09547926565743       -0.20592782744290        1.44618595397491
C            4.62267945012534       -0.21955633078863        1.48806039049722
C            5.17601148280261       -0.35680008527311        2.90075410664761
O            6.58743883297833       -0.34614308014743        2.95006869760254
H            0.63076428823707        0.03899841230453       -1.02316054072594
H            0.61159448577396        0.76405705778437        0.58155921346647
H            0.60902333004808       -0.98367835287406        0.41023487401859
H            2.93021608809825        0.85135409233203       -0.42675734481269
H            2.92727933811512       -0.88118737247063       -0.59563731570033
H            2.70610692461120       -1.12178059440628        1.90739055550327
H            2.71651227274285        0.61012659275595        2.07345370513649
H            5.01790249053904        0.69615404806600        1.03373891086431
H            5.00483672215146       -1.03594999749805        0.86466348263401
H            4.81228162811061       -1.27518139310475        3.37844143538624
H            4.82838861923001        0.47020725685904        3.53118677562133
H            6.95200711554119       -1.06107072515873        2.37988124581404
