83
 energy: -17.467533445359 gnorm: 0.000234244808 xtb: 6.5.0 (97a52f5)
C            0.30077894117279        1.22319723550308        0.58151420880030
C            1.79612518539549        1.01710985727098        0.40311177961970
C            2.46898344908014        2.17869147926905       -0.32827908554173
C            3.96723395470084        1.96388843456616       -0.52912709259767
C            4.62385054093422        3.04982483507110       -1.38594266758609
C            6.03768017932671        2.72023104206238       -1.77170383563976
C            6.31497129536002        2.23696025078536       -3.04218263690609
C            5.23666287503333        2.00737615435736       -4.04791957793751
O            5.28329032277619        2.56367295718623       -5.12827975623085
C            4.09459341421529        1.10807741351464       -3.73652756614608
C            2.84037791698036        1.53139679252748       -4.08357185901822
C            1.71065578128573        0.78647460381921       -3.75980971902696
C            1.80418488705670       -0.41511477960736       -3.10695983600342
C            3.08825789786770       -0.91550133738126       -2.76062273226005
C            3.23683126370697       -2.16205436673907       -2.07288616470213
C            4.50629988058666       -2.58212264009704       -1.73735132063287
C            5.63586032213893       -1.83978279698871       -2.07152217626490
C            5.51082977225618       -0.66159359430715       -2.73745668867660
C            4.24306474566695       -0.15560003398190       -3.08585003495522
C            2.05289498039125       -2.99405616594394       -1.78928643970144
C            2.16980549947287       -4.26772829238587       -1.22652297813124
C            1.06907619248241       -5.07097889058140       -1.03068535502537
C           -0.17830349691005       -4.63570479684888       -1.41075353227887
C           -0.33893651580093       -3.37575171917922       -1.97734509865003
C            0.77524602240995       -2.54039514665663       -2.14097652550208
C            0.54128217732923       -1.13827412193892       -2.67398900534056
C           -0.56854339495658       -1.16214841880975       -3.76314642453364
C           -1.76930429010814       -1.91586985385193       -3.29782015012931
C           -1.64785604640572       -2.93903047486132       -2.45731002550172
C            7.65519748114307        1.94391921777833       -3.42510216890135
C            7.95954343824036        1.49239545013433       -4.73752292208910
C            9.22029325034809        1.16465680749007       -5.09835825056709
C           10.29584623817092        1.26861632641782       -4.17126003942267
C           11.60574425566733        0.92737237526592       -4.52854837885198
C           12.62637706625415        1.04382191964321       -3.62139405986314
C           12.37933195237958        1.50389635769351       -2.33869531555484
C           11.09952931415417        1.85938443287496       -1.92909833038867
C           10.81306307481723        2.35531222225710       -0.58382928134843
C           11.80509925822480        2.51926906127649        0.37627884553426
C           11.51371732217483        2.99510662482168        1.64324730533011
C           10.22674964384603        3.31984412501316        1.98586905782127
C            9.18783415516215        3.17522602470751        1.05975563579360
C            7.84457721040569        3.51104653518966        1.39116170720161
C            6.84640106854424        3.37119671135322        0.49147312924098
C            7.08830477298710        2.88068197834299       -0.82725098759521
C            8.41253884650792        2.54758908442556       -1.18408602442399
C            9.47616380671083        2.69008894403138       -0.23692649537295
C            8.69628831000853        2.07709371993975       -2.49191514947724
C           10.03583233467963        1.73593979725420       -2.86135102602898
H           -0.17445117442452        0.37436614558053        1.07822060404763
H           -0.19667926523545        1.36215118842131       -0.38002354457911
H            0.09386811547686        2.11250731319383        1.17963448205107
H            1.98661999200994        0.08565839179902       -0.14639796493148
H            2.27900762556679        0.87258627756821        1.37848117127941
H            2.29711144649335        3.11505732595673        0.21595606312809
H            1.98614916023176        2.32232383576207       -1.30245810146309
H            4.13135276052533        0.98746357593233       -0.99582373885361
H            4.46927885790381        1.88846716043366        0.44217246861586
H            4.59116555810721        4.01631929540202       -0.87184870601882
H            4.03302007918570        3.20885742566564       -2.29411813751881
H            2.74055024857661        2.47360204443035       -4.59520603290190
H            0.74070889228124        1.18542746703972       -3.99817268991683
H            4.64571371297162       -3.50999576390581       -1.21438474079006
H            6.61427254168455       -2.20566245685848       -1.80536516684106
H            6.38961316926722       -0.10347576968543       -3.00107951927820
H            3.13558733141593       -4.64507686375278       -0.94539246163383
H            1.18677817192925       -6.05021161941459       -0.59563155543331
H           -1.03801815533050       -5.27174621017447       -1.28702025542022
H            0.13809670228299       -0.56288686008368       -1.82520787268963
H           -0.16418451940483       -1.63488529597060       -4.66491856610805
H           -0.85025670478801       -0.14365472798248       -4.05456358909629
H           -2.74411018429101       -1.62156606581937       -3.65145520756509
H           -2.51653894158107       -3.48624395140859       -2.13419879436195
H            7.15929338377145        1.44217529224833       -5.45528411057904
H            9.42925654620229        0.82863746964067       -6.09926223483824
H           11.80193616201400        0.57259219321223       -5.52574817514128
H           13.63032196412974        0.77664854996031       -3.90877576979645
H           13.20227138041913        1.58390008463096       -1.65238777093722
H           12.82459923153779        2.27678577282398        0.13862899680411
H           12.30550356540057        3.11265076339173        2.36508084413302
H           10.00337310681083        3.69156913447050        2.97113216892707
H            7.63603657477036        3.88382076133486        2.37925702252999
H            5.84566611029783        3.64177677454442        0.77601593055790
