38
 energy: -7.280261466314 gnorm: 0.000552487558 xtb: 6.5.0 (97a52f5)
C            0.75622488096879       -0.12499139723276        0.06029833653958
C            2.27363785151945       -0.03847700962418        0.10655735490093
C            2.94374620734399       -1.41168363413243        0.16037370716889
C            4.46959690621287       -1.33304686091526        0.21752724481105
C            5.13300978918487       -2.71172443835401        0.26959192014923
C            6.63776421344258       -2.71583606618012        0.32937979776364
C            7.30367992186208       -3.93335633922403        0.34785196316206
C            8.67870575481414       -3.99290791499337        0.40367017957599
C            9.44131600190915       -2.82935981441424        0.44542998158380
C           10.91975776626881       -2.89028687888700        0.50879385299805
C           11.63375320891776       -3.78505518188791       -0.28616039095543
C           13.00689931379827       -3.84547781619020       -0.22152791068663
C           13.71413567511904       -3.01500285236072        0.64010902122477
C           15.11396424524216       -3.08103452527417        0.71036132016918
N           16.27319313843839       -3.13737695479510        0.76810679122701
C           13.00632384720802       -2.11964096888370        1.43357877401497
C           11.63321422461231       -2.05753053718906        1.36872331277960
C            8.77316072611143       -1.60830024831357        0.42891445665427
C            7.39722178307853       -1.55393419341265        0.37138109250771
H            0.28977388804393        0.86170802718047        0.02143318157990
H            0.36311337050401       -0.63927897743251        0.93903667360728
H            0.41904330092660       -0.68236331798284       -0.81537473406955
H            2.59173900078220        0.55397647778807        0.97448906953864
H            2.64760330474992        0.51312205165873       -0.76604044711732
H            2.63798882143286       -2.00474155050161       -0.70992928124247
H            2.57175036730162       -1.96841646600046        1.02893252565449
H            4.77122922996668       -0.74428504508629        1.09188123425879
H            4.84002285258995       -0.77730397424165       -0.65202233037035
H            4.81852105140449       -3.29406331355193       -0.60419719603915
H            4.74928741635788       -3.26267571024173        1.13595886176313
H            6.72783915774358       -4.84285804664111        0.32052786426068
H            9.17695779988776       -4.94666346929968        0.42974183143985
H           11.09763232423614       -4.42589791094555       -0.96464682948941
H           13.55181489169910       -4.53925418643570       -0.83890140337970
H           13.55074942939468       -1.47588728663535        2.10334225659629
H           11.09505073230061       -1.36937035523721        1.99741673388307
H            9.34800182449811       -0.69854727857258        0.45067150098866
H            6.90832578012823       -0.59589603555947        0.35718968254777
