14
 energy: -1.898907764088 gnorm: 0.000241042959 xtb: 6.5.0 (97a52f5)
C            0.89906075609736        0.04791786320833       -0.01093993741196
C            2.41883758991278        0.06644453054642       -0.02541438643615
C            2.98833862005542        1.18569844783003       -0.89990028190909
C            4.50170880168485        1.21422734930030       -0.92219099098198
Cl           5.07697824110435        2.52260304815448       -1.94443749368926
H            0.50385156474095       -0.75439062169945        0.61591324379486
H            0.49645851169097       -0.09218477036334       -1.01572703086843
H            0.49645788158531        0.98897689968586        0.36804981574807
H            2.80581815969474       -0.89934292600160       -0.37595445617630
H            2.80581758212500        0.17296010930315        0.99648513215172
H            2.61186390725317        2.15666084795792       -0.55456324553166
H            2.61186315741160        1.08548422994306       -1.92556210419462
H            4.90868223826776        0.27407601539047       -1.30160661437902
H            4.90868298837573        1.35495897674436        0.08181834988383
