40
 energy: -5.810611903309 gnorm: 0.000580465876 xtb: 6.5.0 (97a52f5)
C            1.45667556467399       -0.14355160485501        1.39578114048722
C            2.64695894292266        0.03964192487605        0.46723719572625
C            3.17409841127695       -1.28503565954837       -0.08472670204375
C            4.34920517018696       -1.10741518433567       -1.03719227631041
N            4.86538586795337       -2.40857774079699       -1.55805232698138
C            4.40717734746630       -2.78057947413705       -2.93362584187501
C            2.89333471694099       -2.82502978730824       -3.08766553637511
C            2.44850815371474       -3.30121785992052       -4.47085511722645
C            0.93597892348498       -3.32869137172782       -4.62280403669672
C            6.33638358391000       -2.50477035898958       -1.37233887420561
C            6.90015390165561       -3.90520388026901       -1.58269179061366
C            8.37565596521550       -4.01587109171921       -1.19553155157481
C            8.93794441081438       -5.41161350075071       -1.41353532163940
H            1.08902859162394        0.80870645202803        1.78623727497205
H            1.71571859663267       -0.77122116976397        2.25112081733399
H            0.62527299575969       -0.62988933742604        0.88081302246941
H            3.45873354259562        0.56440916804060        0.98958606458400
H            2.37613771334118        0.69833580568802       -0.36941249932362
H            2.36315694781546       -1.82282653572701       -0.58816620012282
H            3.47389136253358       -1.94119862590492        0.74156768478169
H            5.15590046316907       -0.57258824402638       -0.52606142415575
H            4.07140101975919       -0.46957671825494       -1.88196763953361
H            4.81948453637023       -3.76204151617112       -3.17947474878936
H            4.84550482619317       -2.07754824411945       -3.64788715001266
H            2.46824968631842       -1.83384727029787       -2.89089530811389
H            2.46880791194630       -3.48001560573790       -2.31711276060874
H            2.86730054509022       -4.29847942530421       -4.66399468236066
H            2.89439185307499       -2.65351471528405       -5.23789977829207
H            0.47675208509060       -3.99044635342886       -3.88575478367078
H            0.62810896521651       -3.67529037236921       -5.61210915992530
H            0.50604678315434       -2.33600895352395       -4.47453882151891
H            6.56706395025240       -2.17920746787470       -0.35311820657830
H            6.82386303984474       -1.78733025939410       -2.03943596889305
H            6.77838549166028       -4.20885770377947       -2.62877673651605
H            6.30860183584535       -4.62456178934515       -1.00333972393031
H            8.49909974449851       -3.71794002952118       -0.14547791139242
H            8.95612327071055       -3.27980865154333       -1.76841290149001
H            8.39515796896362       -6.15280832506181       -0.82309907886362
H            9.99256763140760       -5.47835794118941       -1.13525695389326
H            8.85531768091404       -5.71176058122874       -2.46025138682734
