41
 energy: -8.528280699524 gnorm: 0.000881025014 xtb: 6.5.0 (97a52f5)
C           -1.26678950486826       -0.45120888585458       -0.01709391328655
C           -0.95177686967431        0.85408051727566       -0.07848459701216
C           -1.91961367739193        1.96876735888152       -0.11937109560888
C           -3.00288499660005        2.00223237999970        0.75435262363480
C           -3.89614492584779        3.05169881406445        0.72725809908118
C           -3.72421055978592        4.08376723595397       -0.17358658120977
C           -2.65711692753729        4.06388987109768       -1.04911660597386
C           -1.76288700906607        3.01576945762924       -1.02394897148523
C            0.52149423077578        0.99817545003041       -0.10183791815303
C            1.25453954766055        2.28049930356117       -0.10483350927870
C            0.90327868851390        3.30155747496759        0.77437923863311
C            1.58110638565952        4.50112747024156        0.76780868992267
C            2.62302563888661        4.70118895892381       -0.11540088420892
C            2.98638520176371        3.69758960990194       -0.99119328460728
C            2.30998036381001        2.49658790033045       -0.98637005074447
C            1.08561068064867       -0.22178548869004       -0.07444603646784
C            0.00119565797393       -1.26318400831843        0.00868503680496
C            0.11581925716796       -2.13195694930723        1.24631084543386
C            0.25031331673207       -3.50859825711376        1.14421220742753
C            0.35500306815798       -4.28958085570516        2.27735561154994
C            0.32659003806076       -3.70327666396966        3.52593411883062
C            0.19338021756983       -2.33502448376538        3.64013747188798
C            0.08866216253239       -1.55568986284407        2.50641897152072
H           -2.26676618654007       -0.84549320585766        0.02913892087395
H           -3.12838016784630        1.20019679295414        1.46149065045276
H           -4.72837176222624        3.06830050421322        1.41205327405167
H           -4.42226162985789        4.90491729500444       -0.19258052222966
H           -2.52127030420303        4.87002816126840       -1.75167873750422
H           -0.92643010666957        2.99794802445428       -1.70134627043398
H            0.08843667505948        3.14106897120681        1.45941439121734
H            1.29656483306530        5.28415443493368        1.45172350447663
H            3.15184800387560        5.64040625551082       -0.12089807104302
H            3.79937206168814        3.85452097951353       -1.68131823278381
H            2.58533742234284        1.71412201539367       -1.67263046263252
H            2.14361803117148       -0.41225654465940       -0.03259490494064
H            0.04132512065674       -1.89803034322479       -0.89142521811335
H            0.27247556433033       -3.96466888795503        0.16921368633848
H            0.45878627702853       -5.35863703815632        2.18657109885650
H            0.40830545683063       -4.31352068573607        4.41079565829976
H            0.17109621986171       -1.87477879569537        4.61458995051550
H           -0.01483549370899       -0.48727428045964        2.58884181790731
