112
 energy: -21.140792693003 gnorm: 0.000987662614 xtb: 6.5.0 (97a52f5)
C            2.06093186611573       -0.42982916075131        1.98568285389127
C            2.72136515092630       -0.03614182217338        0.67471278407067
C            3.46992284042271        1.29380879985736        0.76345494808311
C            4.12738781235443        1.69619632228000       -0.54894290546390
N            4.86797555881654        2.97205129184087       -0.44374447670153
C            4.07499063030235        4.19381045450904       -0.18837345506908
C            2.82037204790331        4.31964160128086       -1.04412808750583
C            2.09774605816473        5.65299977808898       -0.84851661185867
C            0.84611072486765        5.77602492106366       -1.70181549648520
C            6.27748712578736        2.99425200117954       -0.31490197288207
C            7.08322005728391        2.05233747097457       -0.96381823955370
C            8.45110448262960        2.08965510470949       -0.84650536808380
C            9.07602579502394        3.06646041703466       -0.07656636911102
C           10.47532301991026        3.11766852508250        0.03317297158250
C           11.69075671984513        3.20072409769398        0.13098215055708
C           13.08525075241271        3.33405277755814        0.24752781926226
C           13.64163641567759        4.59872480201166        0.37977910955766
C           15.00925840676942        4.79633767952087        0.50161894964572
C           15.49801550651965        6.10875636206027        0.62177177889510
C           15.84294578028733        7.27661799882542        0.71183242371057
C           16.16050796755894        8.63575646138032        0.80686950234088
C           15.88021807087319        9.34023093188129        1.97751522884648
F           15.29042772921494        8.72584321294784        3.02156587740371
C           16.17123205424182       10.69329711098429        2.06303903193813
F           15.88233697039910       11.37053842219683        3.18623674404414
C           16.73483582080387       11.35350611829966        0.98174925184805
F           16.99902301473351       12.66730868088307        1.06082337332660
C           17.00240781382230       10.66257830439639       -0.19022885565526
F           17.51943095202584       11.31007440554405       -1.24728736989698
C           16.71328590625404        9.30937427845850       -0.28215051100660
F           16.93480841456746        8.66665602920342       -1.44527134857912
C           15.85855034678464        3.67743330509192        0.49605904804109
C           17.25510004967109        3.77199385485681        0.62411814509717
C           18.46758441195473        3.67162502304919        0.72984637067165
C           19.82708518238649        3.35909225322106        0.83522050679162
C           20.78421105490179        4.32942993670648        1.12849364585510
F           20.42362428200016        5.61134269929017        1.33181871052801
C           22.12209650702421        3.97708389577072        1.22644101066513
F           23.04196126702801        4.91304830319103        1.51150644999172
C           22.51207181729438        2.65975646614516        1.03700108353109
F           23.80762081509257        2.32261197961768        1.13629085035017
C           21.56402657278094        1.68934659901599        0.75158044080375
F           21.94096654992806        0.41211002444621        0.57788422862354
C           20.22529450756516        2.03516302888986        0.65175816369954
F           19.31351314005594        1.07847309589488        0.38666854724801
C           15.30403452537220        2.41398755966540        0.35971000510218
C           13.93706701669133        2.21565681558674        0.23342137125427
C           13.44773101342528        0.90541466668440        0.09335529730427
C           13.08689416693312       -0.25529383528161       -0.03414977628735
C           12.74525596805322       -1.60929965784505       -0.18366037297043
C           13.38764606308504       -2.58596576788450        0.57132970154848
C           13.07758793685112       -3.91440129844550        0.41756677004676
C           12.11082405087162       -4.32879091982707       -0.50395595851415
N           11.80278928629860       -5.69165138158725       -0.67327998079037
C           12.44125717593237       -6.75003586033318        0.12979619785193
C           13.80902359130952       -7.13966494088798       -0.41282591062138
C           14.51833904558297       -8.19020500317765        0.44173145998199
C           15.87660663703696       -8.58423686740234       -0.11480719492751
C           10.85854762072029       -6.16431348074566       -1.70174542771117
C            9.41115461364867       -6.07745282975324       -1.23967196613057
C            8.41249393540335       -6.51792302577762       -2.30958297948910
C            6.96888153214142       -6.41963542777225       -1.84476558198880
C           11.46608732672516       -3.34058488425892       -1.25521443370764
C           11.77670473399675       -2.01217937241198       -1.09785651782177
C            8.28024495118628        4.00450496441098        0.57471194601402
C            6.91285715708053        3.97107767758135        0.45883539350789
H            1.53072238331696       -1.38099794166644        1.90819626486711
H            1.33880118646168        0.32302855052306        2.30519584243962
H            2.79748812944470       -0.52838431315682        2.78449208241167
H            1.96976313099858        0.02473478287298       -0.12265757739115
H            3.41594883470069       -0.82157846661686        0.35092764612469
H            4.23277265215447        1.24011294902809        1.54855813810686
H            2.78182960178870        2.08093369146242        1.09017927786426
H            3.38627876393730        1.78050486787449       -1.34739708327995
H            4.80982722528044        0.90719629073681       -0.86993863655500
H            4.71836290656786        5.05690886495336       -0.37966564896056
H            3.82337696023526        4.22991146232785        0.87485120400016
H            2.13030364273681        3.49839627917832       -0.82272227237392
H            3.08830297781111        4.19640081419266       -2.09966468872253
H            2.78856541056492        6.47591913910066       -1.07202431412465
H            1.84478370238142        5.77500148703638        0.21241881137512
H            1.08355038224642        5.69640380956259       -2.76386290076902
H            0.33861321682774        6.73058836109074       -1.54951714800176
H            0.13188619037327        4.98401087794792       -1.47108789795899
H            6.62840399829856        1.31608952899337       -1.60111474680469
H            9.06076349727605        1.36586128239302       -1.35955318679808
H           12.99124731862656        5.45573566377687        0.38700526938684
H           15.95968774037339        1.56042184644686        0.35026510040729
H           14.14083135925915       -2.28221791446690        1.27807734139222
H           13.59590825797502       -4.64567748200212        1.01014677345118
H           11.77991198530310       -7.62069754686048        0.15507950840433
H           12.51105738422082       -6.41363867399214        1.16721747568860
H           14.43815335363539       -6.24694683138228       -0.49929202600246
H           13.70165978106257       -7.50647656778058       -1.43982877861376
H           13.87667219259309       -9.07562731393109        0.53298690162723
H           14.62615743328082       -7.81059647113161        1.46569322261476
H           15.78572727918227       -9.00246130331496       -1.11823073702655
H           16.37394459907271       -9.33021997590703        0.50804344001758
H           16.53960231345483       -7.72075493558976       -0.18468522122565
H           11.11056378156207       -7.19530247680794       -1.96556386098562
H           11.01535892698043       -5.58831694520731       -2.61722400886696
H            9.18742840010548       -5.05286540516430       -0.92306159469559
H            9.28051913536939       -6.68439782763300       -0.33661864834345
H            8.64114167376104       -7.54604812016973       -2.61753561409088
H            8.55977362441019       -5.91179810148265       -3.21247338544143
H            6.79333139814197       -7.04498469736657       -0.96827800371246
H            6.26703563406539       -6.73465409499750       -2.61937066471710
H            6.71346848768504       -5.39613434040591       -1.56653906718233
H           10.71206561106364       -3.62200382968685       -1.96712427047900
H           11.27624624086707       -1.26334972452375       -1.68735024678596
H            8.75582871587934        4.76127160960677        1.17483020952469
H            6.31774626381368        4.68898817500617        0.99406474772907
