118
 energy: -22.390621484043 gnorm: 0.000688493612 xtb: 6.5.0 (97a52f5)
C            3.68907472672970       -2.92475283570916        0.16594475644633
C            3.81219808709869       -1.46136050587617       -0.22283001664014
C            4.48703275924899       -0.61943807569002        0.85939962641374
C            4.62715424412739        0.84544497529515        0.47271365557980
N            5.28645970425326        1.64048893080758        1.52627742294500
C            4.44678776163793        2.30172107235024        2.55421903879376
C            2.94208079621526        2.31618510551964        2.30556190099757
C            2.16468007864961        3.00658150942615        3.42727898455926
C            0.66597260873495        3.03614825877392        3.17373363052240
C            6.68972987096730        1.63413018195830        1.66245496567131
C            7.51035862733037        0.92898340122874        0.77424676566687
C            8.87761373013693        0.94045329972899        0.90601514291181
C            9.49129678087016        1.65459095695856        1.93128130159675
C           10.89018022471694        1.67475262812707        2.05919779344782
C           12.10813040810688        1.67317957630045        2.16153433020288
C           13.50902842489768        1.61296358580540        2.27258648007457
C           14.25573611435606        2.78035040410755        2.35015540923600
C           15.63939941712262        2.76005193538519        2.45409519732510
C           16.36195864996470        3.96609138777536        2.53569836601171
C           17.02809276777596        4.98635947260617        2.61831062491766
C           17.80557006934703        6.15665644982540        2.72406030198818
C           17.37179812923161        7.22560647241718        3.50007964271543
C           18.12926213694593        8.37125647032540        3.60221453440851
C           19.33364380814820        8.46979096277562        2.93781521969397
C           20.14745433273275        9.75069552517404        3.03183774214394
F           19.69206612064785       10.61259645078151        2.09642127498571
F           19.99089453923308       10.27720686187938        4.26659723273532
F           21.44870058148829        9.46321830048124        2.80845802977391
C           19.77455222729789        7.41739346173381        2.16233303963672
C           19.02024025312717        6.26937289563139        2.05637937604349
C           16.30412686605515        1.52077119334208        2.48002506006832
C           17.70753311428111        1.46043461136652        2.57894550366187
C           18.92621322234126        1.45764962583392        2.65828232497453
C           20.33253226106071        1.47504211431421        2.74238147302662
C           21.01746359905950        2.66441792021902        2.96686131106831
C           22.39296877687037        2.67724909252353        3.04451153496093
C           23.10781743166627        1.50560108441040        2.90372583272893
C           24.62716731281391        1.51955535871295        2.96213698723889
F           25.09909601217381        1.67968846688003        1.70637073171986
F           25.02763938865844        2.54430530467653        3.74654588803478
F           25.05533421829380        0.34474008142108        3.47491587925947
C           22.44010703963811        0.32093611421960        2.67449617826131
C           21.06529080012403        0.30262088584961        2.59656482274516
C           15.55740988425971        0.35349080180692        2.40502136849512
C           14.17332509504583        0.37365122256154        2.30301127055107
C           13.44779458701192       -0.82902953110092        2.22740401569093
C           12.76536539648930       -1.84033479779765        2.15325233232377
C           11.95986051147735       -2.98727505814233        2.05572042675835
C           12.46473852340447       -4.24094780057956        2.38787401029408
C           11.68373612743558       -5.36550119536389        2.28571286212988
C           10.35954637106769       -5.28913606150905        1.84130259261061
N            9.56631974173123       -6.44600009631358        1.72372751800068
C           10.05241766136148       -7.77731381742751        2.12901720221909
C           10.89542421143751       -8.43625791232750        1.04635050961734
C           11.46162926663444       -9.79218196647590        1.46694675111266
C           12.30425858327433      -10.43963603734199        0.38016077613912
C            8.21130235723184       -6.42602221889726        1.14461465040226
C            7.14763728601498       -6.05231239469062        2.16655033368340
C            5.73104663188511       -6.09581195209737        1.59417813057632
C            4.67429870923832       -5.67286354576755        2.60146218097234
C            9.85694364338516       -4.02490050169195        1.51487395926478
C           10.63934775335885       -2.90073308779964        1.62231499192944
C            8.68294550042271        2.34970997260370        2.82576093756338
C            7.31575778683627        2.33949537731429        2.69655358396113
H            3.21234106855528       -3.51978598343054       -0.61569570762168
H            3.09900878141711       -3.04338482486410        1.07618686492381
H            4.67018574840425       -3.36065602348087        0.35837964891945
H            2.82157125082233       -1.04308738871639       -0.44322596872995
H            4.37609070630271       -1.36548943802196       -1.15974398514383
H            5.47450089269827       -1.03467702755592        1.09081039571640
H            3.92428625392775       -0.69835144466026        1.79649931691402
H            3.64959159638413        1.27406790048821        0.24354324117378
H            5.19289279301517        0.95171444242073       -0.45637559559171
H            4.79746180505819        3.33303999612181        2.65279424808393
H            4.65386874987353        1.81326429496925        3.51092220688555
H            2.57281442733375        1.29137878424151        2.18705971998379
H            2.72899100774343        2.82076265208027        1.35622976251338
H            2.54554327478416        4.02813824198294        3.55615660038275
H            2.37708796375453        2.50253628019973        4.37908587111862
H            0.43291528113557        3.56283500019161        2.24688058453648
H            0.12330662015464        3.53485287132039        3.97941764053637
H            0.26122201491512        2.02699474831058        3.08024025748670
H            7.06962610910435        0.36416064038224       -0.02658084733009
H            9.49536045274586        0.40016431953984        0.20898394726898
H           13.74738171560780        3.72775273415201        2.32867454601106
H           16.43253191450817        7.14720687827927        4.02039830009634
H           17.79800108650057        9.20364563949095        4.20008806903945
H           20.71517978236794        7.51280286436987        1.64629544943619
H           19.36206675000981        5.44856164195486        1.44928470085664
H           20.45765017824016        3.57747196593165        3.07675082595063
H           22.93033470719055        3.59458919974612        3.21795052441761
H           23.01407956473677       -0.58333382453224        2.56096271136458
H           20.54337924587107       -0.62222538436794        2.41957700852396
H           16.06582740793258       -0.59385545177374        2.42588123650092
H           13.48381811689134       -4.31626162876201        2.72695006169385
H           12.10388260610661       -6.32036328864277        2.54370990091685
H            9.19259019462150       -8.40660516077553        2.37668942931742
H           10.61422386439146       -7.68115276459384        3.06173424649693
H           11.71383138890931       -7.76659246207466        0.75927592342854
H           10.29528947498883       -8.54982689313217        0.13619871726384
H           10.63631759735259      -10.45701408820284        1.75260905307010
H           12.05583009515948       -9.66802930202804        2.38151773036469
H           11.71950059307428      -10.60601003353891       -0.52590201021453
H           12.70768678332695      -11.40455897361880        0.69364418445080
H           13.14862288585815       -9.80539491873791        0.10557087462510
H            7.99804477697157       -7.41303803346505        0.72387859323343
H            8.19702845919899       -5.74159914743696        0.29230583200528
H            7.35626208893046       -5.05498454144429        2.56952887125688
H            7.21989955597175       -6.72441090802637        3.02936481000634
H            5.51958303017502       -7.10850684815079        1.22710754076392
H            5.68306542124011       -5.45792409892439        0.70274809620710
H            4.68551820491088       -6.32025549555893        3.47973512861273
H            3.66755387511959       -5.70941376096896        2.18010423350420
H            4.84679997146747       -4.65326821308482        2.95008404713351
H            8.84044552656539       -3.92872108804637        1.17940062577681
H           10.23858301355178       -1.93309968559426        1.37287214315731
H            9.14875793794846        2.90152359089336        3.62444025936659
H            6.72005172949482        2.88475307452044        3.40579443605902
