118
 energy: -16.237967465501 gnorm: 0.010454113304 xtb: 6.5.0 (97a52f5)
C            3.58278918080583       -0.06382802137078        1.51633811743641
C            4.04719998891830       -1.10885343635845        0.51500905312822
C            4.50512504408259       -0.49665878878821       -0.80805363214153
C            4.95970263872786       -1.53413297024844       -1.82248906801453
N            5.38601354777222       -0.91197481810298       -3.09321538748385
C            4.32029677695056       -0.47863175759120       -4.02427665417972
C            3.08685075418498       -1.37339403389050       -4.07142896812177
C            2.08741201943756       -0.94896953470861       -5.14797958935479
C            0.86309817466454       -1.84765305303794       -5.20064914932312
C            6.70229531061593       -0.42335597393896       -3.25674572941277
C            7.78337021315675       -0.99121986750562       -2.57406432689119
C            9.06163698729300       -0.53117430847792       -2.76385441878286
C            9.32318657555230        0.52204050925915       -3.63380880384479
C           10.64124798869825        0.95669589931360       -3.85040403566429
C           11.80027601857509        1.28993741023955       -4.04772466423372
C           13.09994117146007        1.62527658188088       -4.27573347870514
C           13.70496006283796        2.82493138875682       -4.34118447554613
C           15.06319018288939        2.98333963288781       -4.58719092863812
C           15.64250601917305        4.26779810491616       -4.64729338848909
C           16.34354700252905        5.26477378077966       -4.73829769909751
C           17.32942625922358        6.26166139327537       -4.88286638885091
C           17.04389292935313        7.61847065288840       -4.78646839275801
C           18.04528678370846        8.55453792892273       -4.92942691903764
C           19.34377989917063        8.15623878841159       -5.17257925212200
C           20.44810279426861        9.19297871556077       -5.30593692480688
F           19.95093446861083       10.28116590241091       -5.93046838502681
F           20.87972282976288        9.51823017447498       -4.06919850253360
F           21.46111639732884        8.66903254452756       -6.02487384279976
C           19.63943744483959        6.81287559372425       -5.26213573199502
C           18.64219998194961        5.87544452676482       -5.12410054071488
C           15.87785252359300        1.90722521536491       -4.77792771698775
C           17.22153226057099        1.91572290340857       -5.01791069090613
C           18.41668938626288        2.07166931519625       -5.21467315484907
C           19.73775260625615        2.35780312585049       -5.40452586472996
C           20.58310057969407        3.00725670703062       -4.58082015935572
C           21.88926992103641        3.30103716331223       -4.90831209324094
C           22.45254608390462        2.97266006983233       -6.09049599726939
N           23.76953449089410        3.19604199938006       -6.46058814377116
C           24.14158894255080        2.63887313938117       -7.49395430512182
C           24.25614020386710        4.26584901446526       -6.08870941756605
C           24.85996998262646        7.50750959993130       -7.64627375564990
C           25.20698189375862        7.76915069380421       -3.57644353352547
C           26.96078881590648        1.73821095804346       -5.28120869737827
C           28.06775608440881        5.35968077728720       -7.21894690927546
C           28.35342488937709        4.21557437013090       -7.71879612300134
C           28.04800100254882        3.66095356560899       -8.88480982100648
C           22.70376412130473       -0.15272354028250       -4.51425223394161
C           22.03448176471750       -0.46115789048573       -5.56034597275426
C           14.12699140982028       -0.66666602287644       -1.90226933651700
C           13.23147287059957       -0.34470571260658       -1.05229366810847
C           12.00749456665281       -0.83723162093012       -0.92170962347569
C           11.41048766221728       -1.76266213187317       -1.65334019100456
C           12.00625697349493       -2.30249657053969       -2.74704441369748
C           11.71042910480854       -3.64527604670641       -2.96795589393289
C           10.39713341676092       -3.93800700988724       -3.37096479752946
C            9.44133534207759       -3.91305525765760       -2.41248637132455
C           10.90963782352569       -6.50340460235205       -5.81352307093852
F           11.36972023760405       -7.55055600896300       -5.24260505528365
F           10.34227199325535       -7.79278652750445       -2.30364682129461
F            5.55658406503287       -4.43403667596214       -4.10248781626232
C            8.12678324237109       -2.22899002549959       -6.20337501599493
C            9.38135104107989       -1.91203048917390       -6.10161701416527
C            8.25337975745572        1.10166397722989       -4.30810749420571
C            6.97332571893612        0.63979657081379       -4.12596998737557
H            3.25739227161994       -0.51229667695017        2.45698095778956
H            2.74629108497646        0.51519282696601        1.12200128443743
H            4.38138357944784        0.64231308022612        1.74882846547813
H            3.24259288442929       -1.82963843200868        0.32030161344585
H            4.86497107937212       -1.70395884893377        0.94129944235944
H            5.31925024267294        0.21458608896810       -0.62740066115786
H            3.69526550856482        0.10352356169737       -1.23767266562262
H            4.16493790927462       -2.25615451397469       -2.02163050180408
H            5.77610802763547       -2.13119903678190       -1.41258824638079
H            4.75736345333953       -0.43386407071854       -5.02621384322208
H            4.03555820430589        0.54528883258922       -3.76602609111566
H            2.58573881823739       -1.37548716128019       -3.09685337728488
H            3.39550487567531       -2.41044695083384       -4.24576054450381
H            2.58876068359752       -0.93747475354269       -6.12432458351338
H            1.78569930783665        0.09161585261127       -4.97156712826392
H            1.14138829709967       -2.88107465482720       -5.41312976694918
H            0.15597772517691       -1.53320874505429       -5.97094170064703
H            0.33230963804765       -1.84704385517255       -4.24742636584925
H            7.62345737319052       -1.83092369400044       -1.92344298431267
H            9.89410598641271       -1.00707715127534       -2.26709493722349
H           13.10816673638266        3.70846423279873       -4.19524170507723
H           16.03102058251276        7.92908154866140       -4.59674394873187
H           17.83344308371171        9.60773145435963       -4.85576767432798
H           20.65833045460989        6.51429164486453       -5.43646214828647
H           18.86849880998295        4.82647388190132       -5.19768825552213
H           20.20661368480233        3.31951868195670       -3.61999517566795
H           22.50018827592575        3.82341229083751       -4.19037638487975
H           23.69889903180083        3.54354545929331       -9.08936803263087
H           24.57640886083004        5.80208714653030       -6.90396355825486
H           24.15980186784216        5.55975877756349       -4.74831331274463
H           22.33139206317581        5.66770559648848       -6.86094373499695
H           24.93333640706266        9.14150921733598       -8.62722632611585
H           26.21683262907366        7.79112614040102       -6.33716767226505
H           21.45398774651964       10.52213426810599       -7.29205769234523
H           23.21408711023663        8.08656527763617       -6.93360314101248
H           22.89863876854779        9.25947984184381       -4.50270981618230
H           22.76725297731349        1.38277279824040       -8.26628376269811
H           24.49072226002823        2.01038247250394       -3.67506623827657
H           26.03953804730500        4.33740328218703       -5.50757375054794
H           25.65484317692401        3.90604442521102       -7.61655940109275
H           25.59054238825978        2.01726652090793       -8.42305637899889
H           28.90688334426192        3.72502872689385       -4.78329179605399
H           25.74337844961934        6.54941571825131       -9.06391767381660
H           28.05455355848444        0.89091923528267       -7.71428821653691
H           31.26048767860566        4.40051625951141       -7.87007210378183
H           24.63562396912737        0.65934555844098       -6.67329847843069
H           19.21610499064152       -0.63379621948513       -4.70533472207572
H           15.69368698586437        1.86233917934516       -1.90436713910229
H           10.90097921505371       -2.96324861881584       -0.46875384675968
H           12.90340004365558       -6.16386711409465       -2.64070459430155
H            7.47477534188562       -2.35340050230759       -5.38549503363655
H            9.86795749920610       -1.74397190666067       -5.18606875425249
H            8.44735964098360        1.91496971431235       -4.98650515004066
H            6.16383112410849        1.11548741632565       -4.64970952974879
