118
 energy: -22.436243381129 gnorm: 0.000618449261 xtb: 6.5.0 (97a52f5)
C            3.75495324543776       -4.07131667912697        2.10434386666352
C            3.76317847772997       -2.74028383095967        1.37020761071301
C            4.37266041078662       -1.60482617915239        2.19606028970008
C            4.46990059731409       -0.29817373975976        1.42232224202246
N            5.06730446516979        0.79385289092674        2.21388556164856
C            4.10284408582512        1.64366946181487        2.93329523247437
C            3.65308209498622        2.84086549233893        2.10776583289589
C            2.69740096581672        3.76331186428170        2.86405047277223
C            2.25514655887690        4.95882392524148        2.03637990302308
C            6.45012779259363        1.06213569792772        2.21168561670618
C            7.35965258570719        0.15664761407268        1.65962226058258
C            8.70430213094288        0.43109744756909        1.63854750992894
C            9.21111026961912        1.61415063196159        2.16739380781166
C           10.59532116467458        1.86530151787941        2.13944450439393
C           11.81075105485147        1.99109980279744        2.08716900755242
C           13.21709938740359        1.99819746945869        1.99207734879601
C           13.92981257013910        3.18336203254330        2.10794082189211
C           15.31368783227394        3.21776027494060        2.00771184735321
C           16.00965438824969        4.43883623661556        2.11439279838298
C           16.71132386927746        5.43918059492349        2.16685093939233
C           17.61196867671129        6.52019429379382        2.18161425776535
C           17.22648444879137        7.80325053699746        2.55904765213583
C           18.12935652128274        8.84001312161304        2.55803715348742
C           19.46110931982910        8.64447988744629        2.17358689172918
N           20.38329867098842        9.70834399522500        2.14713664126347
C           20.03611431202111       11.05940713888849        2.62014478350748
C           19.31165131161843       11.87459021305559        1.55816074871922
C           18.89580982051059       13.26178707933494        2.04657731019851
C           18.16712040214059       14.06540704731138        0.98196804406674
C           21.72384166861815        9.58358183322043        1.54322156238578
C           22.77616646579191        9.10544285182864        2.53342228869730
C           24.17128061444646        8.99893020022797        1.91310387187181
C           25.20969806266395        8.45012230160611        2.87788160654666
C           19.84244101201726        7.35255048229420        1.80487364364674
C           18.93740491421990        6.32142407730834        1.81029457409427
C           16.01282517277544        2.01493991888106        1.78551643202936
C           17.41754240852962        2.03897487652111        1.67958325633456
C           18.60635474017654        2.31603344864602        1.62592782785699
C           19.85888612222206        2.96424289189647        1.61953543309173
C           20.46037720372275        3.32858110962568        2.82015927692534
C           21.56329426985133        4.15332121305771        2.82838036347543
C           22.08344251672505        4.63097849558933        1.64281881823377
C           23.17396636774552        5.69125531152726        1.65257606504446
F           22.78238579218241        6.69620474028672        0.84094454763506
F           23.32497449021854        6.14988459507940        2.91252362275154
F           24.32583537758589        5.14855896502693        1.20736126979287
C           21.53084281309392        4.23106725272701        0.44348861437511
C           20.42755200690766        3.40571978464692        0.42862799827884
C           15.30289868517447        0.82889829317952        1.66960988908153
C           13.91957710046348        0.79824104055686        1.76659288426665
C           13.20140980025304       -0.40647796544903        1.63333558286858
C           12.36114052069110       -1.28883885189356        1.54348176513810
C           11.17168171487436       -2.04354882656031        1.48330050950141
C           10.56379325196596       -2.32278428305591        0.26325103714317
C            9.30087953291087       -2.87193270096742        0.22035226594115
C            8.62368527318625       -3.14873185122368        1.39001900244654
C            7.16503690972116       -3.57415315389615        1.33170125229972
F            7.08240523274612       -4.81417098393346        0.80728520814671
F            6.65415673052405       -3.55754534671502        2.58061710040661
F            6.50808883303034       -2.68883323430840        0.55253681731829
C            9.23693639864134       -2.92390289003329        2.60555925401047
C           10.49877375737849       -2.37485333621547        2.65499556033500
C            8.31167901775152        2.51558227996015        2.72950756199746
C            6.96415238363037        2.24572263897496        2.75370939299715
H            3.29745099883613       -4.86432614248942        1.50961495635578
H            3.20635852791374       -4.00210907697015        3.04471579886460
H            4.77118921704453       -4.38983869838919        2.34320743625083
H            2.74599972892240       -2.46427211082255        1.06439487113238
H            4.32990052961259       -2.84123880101078        0.43494952385682
H            5.37152331607649       -1.89807794718828        2.53757301902195
H            3.79185402272029       -1.45252571432430        3.11260261940444
H            3.47715910081730        0.01590449295695        1.08745200315048
H            5.05462017465279       -0.43248778921327        0.50805630887691
H            4.55119653573561        1.96441937688539        3.87727117162619
H            3.24081206472852        1.03233707458626        3.21564551163483
H            3.17816143417272        2.49078476801077        1.18412128244991
H            4.52901568272903        3.40790529697014        1.77360817948634
H            3.17954905476478        4.10264666267933        3.78999459617034
H            1.82324227223275        3.18718625139952        3.19393826893527
H            3.11011535000903        5.56203257061374        1.72673813516445
H            1.57567235044352        5.61130709148395        2.58851303429839
H            1.74010864354105        4.64110089889011        1.12838130990325
H            7.00844610328533       -0.78465366688967        1.27544909764973
H            9.39225107179617       -0.28454686715847        1.22680643553911
H           13.39465425509146        4.10100668510164        2.27507139211936
H           16.20464748021854        7.97273582822354        2.85212354346563
H           17.80138736254994        9.82088122882962        2.85007802704867
H           20.95312459336254       11.56886425731838        2.93024104412727
H           19.43330817831013       10.97223838534228        3.52785274223942
H           18.43006511501178       11.32491426543459        1.20994306649226
H           19.94946991381802       11.96836386094932        0.67170732699699
H           19.78470211783520       13.80663962891528        2.38995336819511
H           18.26465390065887       13.15680780661788        2.93857905781725
H           18.79271245596888       14.21041632542021        0.09969975700389
H           17.87350339676529       15.05326395756127        1.34285644266529
H           17.26107476919429       13.55371916352044        0.65312786493243
H           22.01129853081788       10.55401686017714        1.12846484230864
H           21.66523312050013        8.90907980828171        0.68442811928539
H           22.48043193229847        8.12975848507781        2.93540224098681
H           22.80100293295590        9.77599459612021        3.39972871040950
H           24.48003554070224        9.98254093651173        1.53690699197831
H           24.11673235895915        8.35356258224487        1.02621621295131
H           25.28864542563432        9.07092202200398        3.77149571121674
H           26.20091287957398        8.39354909834141        2.42373455061592
H           24.94292243511891        7.44305108261723        3.20295046299371
H           20.86258480243085        7.15598867834643        1.52739573751643
H           19.24892676749185        5.33166595950132        1.53278611833004
H           20.01604151942229        3.00636889061894        3.74646795883358
H           22.00177294976169        4.47999223992541        3.75581150311091
H           21.94510361346525        4.61731582886859       -0.47217960832456
H           19.96125498773502        3.13897988261530       -0.50450261842043
H           15.83722579553107       -0.08777489342700        1.49609899841420
H           11.07125957671209       -2.05533499934478       -0.64774063413196
H            8.80463554039376       -3.04704483708527       -0.71911506920999
H            8.69146101261821       -3.13868209792394        3.50858074266675
H           10.95390360598557       -2.14391714920428        3.60297954188196
H            8.68967494355353        3.43224807114514        3.14869218284312
H            6.29296538453611        2.96336888541562        3.18905305567812
