76
 energy: -15.077947679002 gnorm: 0.000761081180 xtb: 6.5.0 (97a52f5)
C            1.89079783591102        0.67150632737480        1.60844349013373
C            2.84501495676605        0.07357681055282        0.58757066030365
C            3.34259058150569        1.10111342393088       -0.42870965092777
C            4.29434912007848        0.50491491424173       -1.45825275035038
N            4.84869601853519        1.50087006212369       -2.40091470107554
C            3.88027562053730        2.39041939759515       -3.07899471120730
C            2.80585665205886        1.63398450905911       -3.84960908100400
C            1.84097677332586        2.56094155971369       -4.58884354516388
C            0.76721867973876        1.80423236110792       -5.35382889155153
C            6.23038727657544        1.57783000469658       -2.65908787466023
C            7.07332871873734        0.45927273478971       -2.47117103202027
C            8.41219408194931        0.53720263207861       -2.70804951692169
C            9.01143100927388        1.73120810317030       -3.15163289976879
N           10.34259631283675        1.77043397432159       -3.36725065204989
C           10.84484763737770        2.92345816239559       -3.77612386092559
C           12.27187420801610        2.99478116942537       -4.02570424437063
C           13.08254474572023        1.87519768721000       -3.83652332903033
C           14.43364001326950        1.93388349834545       -4.07322313308670
C           15.01078812470473        3.11680416070830       -4.50585546498996
C           14.22992757014518        4.23115290777841       -4.69803363534762
C           12.86128944635472        4.18951538241654       -4.46477362205113
C           12.04852034060895        5.38997256942284       -4.66657596958007
O           12.58153525473963        6.43463099434892       -5.02503911056709
C           10.61937792589981        5.31262646743062       -4.41984280954662
C            9.77284712961835        6.49225638930607       -4.60556970917968
C            9.74449131736668        7.19192361344345       -5.85610398380731
C           10.52126734839973        6.78092497388322       -6.96042061965954
C           10.46998454841277        7.43811876023383       -8.15323610529442
C            9.62857687825754        8.54388548803839       -8.31787962581105
C            8.84998487551924        8.96949286938735       -7.28750694026239
C            8.87711178363215        8.30790846072251       -6.03345160961394
C            8.05895027153436        8.72456012006083       -4.98512963029548
C            8.06793443665723        8.07533571222869       -3.75223012697316
C            7.24078403847043        8.51573731940021       -2.68786655040012
C            7.27193054763788        7.89613738710628       -1.47770420500723
C            8.13114793207608        6.81258440923292       -1.26402085272403
C            8.93755936785659        6.36312966948865       -2.26636518269040
C            8.92629678550684        6.95776563021867       -3.54669072732258
C           10.04637732751331        4.08360993866049       -3.98630853603890
O            8.70005693479295        4.04543944735781       -3.79192223000623
C            8.18053708935351        2.85689568373565       -3.35650629943446
C            6.81397038067880        2.75687663421781       -3.10339188161991
H            1.54637431021443       -0.07035440565833        2.33233745391940
H            1.00755164092506        1.09233814890694        1.12422552593805
H            2.36695044024452        1.47938987638270        2.16699979084495
H            2.35914950792834       -0.75496103855233        0.05615435012847
H            3.70558782728112       -0.38084881645002        1.09513213277764
H            3.84372400367157        1.92550609156419        0.09197553113669
H            2.48403666483336        1.56083333032786       -0.93004238938260
H            3.80377697009966       -0.28545500460270       -2.03271755816935
H            5.12171981959819        0.02444972678728       -0.93059721954858
H            4.41734229169460        3.03940102661008       -3.77416556150915
H            3.43419286488903        3.05623117320196       -2.33527220349694
H            2.24152953066660        0.98551552742862       -3.17066987587468
H            3.28454294728476        0.95133310544288       -4.56150419736187
H            2.40920353993947        3.20534974746215       -5.27225951191258
H            1.37793930183131        3.24923295353567       -3.86965596723186
H            1.20827529445061        1.13185074933277       -6.09179274648698
H            0.09015486148280        2.47664449232762       -5.88519173712786
H            0.16153568166718        1.19239552068783       -4.68292416190608
H            6.64259936350245       -0.47993487155820       -2.17405366685195
H            9.04405923494999       -0.32194380000124       -2.56554498579937
H           12.62483393000799        0.96144553871257       -3.49984212662856
H           15.04610298733655        1.06031262356687       -3.92164881653905
H           16.07146749367436        3.16303561572444       -4.69054199206575
H           14.66330608229030        5.15920166214506       -5.03001552697926
H           11.18336577351269        5.94159816141251       -6.84251960663473
H           11.08444720782207        7.10921860656386       -8.97526229423053
H            9.59905324034660        9.05618521425263       -9.26555132464698
H            8.19786247432922        9.81649675878203       -7.41381556651309
H            7.40721371781586        9.56690629292862       -5.13040679322252
H            6.58681897961197        9.35495857567562       -2.85143204746174
H            6.63847022589571        8.24134566720192       -0.67710940808855
H            8.15187869859643        6.33094976457998       -0.30012602107349
H            9.59052080471179        5.52658254358256       -2.09074145937090
H            6.22499438893630        3.64579712074217       -3.21838886675487
