41
 energy: -6.689436503789 gnorm: 0.004058546306 xtb: 6.5.0 (97a52f5)
C            1.49840094784495        0.68131356100347        1.60679423279211
C            1.40546415477553       -0.26168478959138        0.70253781688109
C            2.48319538044087       -0.52564148378728       -0.28185306708711
C            2.98373173552973        0.50234753182157       -1.07645104082902
C            3.97861791573221        0.25945518845882       -1.99859462410975
C            4.49515537822228       -1.01271342718630       -2.14043164521346
C            4.01460046060653       -2.04271188122968       -1.35632031390601
C            3.01929169309774       -1.80169787603227       -0.43372749571734
C            0.12646950257852       -1.02033291552827        0.74426722921562
C           -0.89331325388005       -0.79969939413190        1.80685618201160
C           -0.70872357453426       -1.26917030603760        3.07546028060141
C           -1.63404142771841       -1.08895436126371        3.99848883510819
C           -2.75521247087182       -0.44884634172993        3.71352451832262
C           -2.96674944609557        0.02139016749535        2.49641881452040
C           -2.06090777788490       -0.14157162190657        1.55071747216037
C           -0.00735194988023       -1.89821046813269       -0.23128540074586
C           -1.18566598524634       -2.65953377423898       -0.28591287167650
C           -2.22566708805839       -2.11027446604099       -1.01965954368398
C           -3.56115212928023       -2.30646510802065       -0.98980376895835
C           -4.33508286349183       -3.05012091529339       -0.10809273192769
C           -3.97139199662258       -3.70327083827192        1.05945809098457
C           -2.75752016322465       -3.71252507073336        1.61671553594910
C            1.55658752692050        3.77121505598578       -0.41151124088674
H            2.34032268494643        1.30386254510318        1.69779529630236
H            2.57492683175356        1.49194552834892       -0.96678619417414
H            4.35526790159838        1.06509717351424       -2.60805959168771
H            5.27428495193079       -1.20138337233876       -2.86057476069491
H            4.41654775015211       -3.03720094818942       -1.46587872488187
H            2.64355087710109       -2.60078435190606        0.18228700843730
H            0.00600417060736        0.25453632339420       -2.22250164809931
H            1.26664666010534       -2.67322464136547       -2.66746820518841
H            1.05985283824509      -10.68159871692249        1.88737321724842
H            1.25918163881788       -9.57741437406025        5.49501650832199
H           -1.05472493775785        0.36038997883079       12.08624224576020
H           -0.87430651221627        1.74878081385753        4.54982986092014
H           -0.94505484526452        2.38469564285007        1.00856189174520
H           -4.09834181585192       -1.81312684339484       -1.78469022840838
H           -5.38462288244427       -3.11314143999852       -0.36041373611385
H           -4.75227879999598       -4.23476530753359        1.58328186422087
H           -2.51627018156119       -4.20235079686942        2.51474904931648
H            1.30335910473537        4.45074632184765        0.31267088348085
