70
 energy: -13.696328508197 gnorm: 0.000699212772 xtb: 6.5.0 (97a52f5)
C            2.04261547443728        1.54079764099447        0.53459008403088
C            2.90942284198958        0.31433395280126        0.30165310320508
C            3.44414992768435        0.23038227815581       -1.12828233144710
C            4.31090984663297       -0.99936927869158       -1.36632763023912
N            4.88537436998677       -1.05632610869427       -2.72871848573719
C            3.93622808475748       -0.97060008284805       -3.86035359262106
C            2.80119611600212       -1.98328799882437       -3.78097673798363
C            1.87646208061728       -1.93499500260262       -4.99766968036874
C            0.74882451742035       -2.95102440612447       -4.92050900449878
C            6.27381941964331       -1.15774281719762       -2.94171740019705
C            7.12143766441885       -1.75135660741335       -1.98085853890544
C            8.46341847117706       -1.85317928244363       -2.19223081084765
C            9.05906901932553       -1.37565172342880       -3.37402420725851
N           10.39258987470578       -1.49883712345586       -3.54491000010903
C           10.89254130707839       -1.03606534042245       -4.67713506881896
C           12.31943592113298       -1.16590880384429       -4.89150271394337
C           13.13277873328357       -1.76662414737246       -3.92918537728676
C           14.48589550063676       -1.88690162504764       -4.12507284443778
C           15.06331892310958       -1.40718736257563       -5.29017137921390
C           14.28026813048888       -0.81219125785737       -6.24945524766163
C           12.90840954562520       -0.68485176160980       -6.06973042789985
C           12.09128031596001       -0.04270822001909       -7.10004900871684
O           12.63553553949249        0.42319480639544       -8.09783701654037
C           10.66074568863983        0.03952076040811       -6.89923827319344
C            9.79790225297193        0.66837575477595       -7.90480210551162
C            8.83240524258570        1.57374851130208       -7.49111196787111
C            7.99051261121489        2.21906109180647       -8.38704232720965
C            8.07895386633905        1.96574298056498       -9.72433667453504
C            9.01375773647138        1.03133481775790      -10.21659022974880
C            9.08657044704795        0.72696171031366      -11.59439460476996
C            9.96271232201095       -0.20780360875381      -12.05689906567679
C           10.80201466916654       -0.88169508023129      -11.16774683653762
C           10.75742737583219       -0.60513365366061       -9.83301908370783
C            9.88018648722995        0.36708950494196       -9.31255928433401
C           10.09104286046182       -0.42915970349120       -5.69089254566306
O            8.74378468017760       -0.30038936662970       -5.52199093263823
C            8.22516394182500       -0.78184311808553       -4.34885124750045
C            6.85618335878641       -0.68424163124266       -4.11050052668176
H            1.67170841575770        1.59197697786806        1.56064628130551
H            1.17550005529792        1.54332375861327       -0.12844482483452
H            2.59860463536506        2.45964096919567        0.33986564083381
H            2.34250438141904       -0.59788010617336        0.53057656997171
H            3.75245887761066        0.30777954947882        1.00516874585877
H            4.02383076360927        1.13131882679187       -1.36100295924730
H            2.60543571090545        0.24214521352489       -1.83254057423848
H            3.74624378711578       -1.91773189800568       -1.18430556196338
H            5.12479517607579       -0.99994287443671       -0.63783381195658
H            4.48396908664580       -1.13397834473194       -4.79131008006586
H            3.54745873274223        0.04968595919023       -3.91592857179003
H            2.21381297846593       -1.82237459946645       -2.87035645249812
H            3.22241510771487       -2.98986928560307       -3.67516228960798
H            2.46772660768690       -2.09500491210935       -5.90897888424922
H            1.46623927821547       -0.92162111112218       -5.10050207500758
H            1.13914899783424       -3.96766965178106       -4.84704914279483
H            0.09966920328544       -2.91057176765684       -5.79797832663214
H            0.12411211455013       -2.78213849940346       -4.04153328575664
H            6.69399403828165       -2.16851514119175       -1.08707223199651
H            9.09944642047740       -2.31443417735390       -1.45709619741739
H           12.67519936812663       -2.13388916006038       -3.02721447905970
H           15.10039907198694       -2.35285184263152       -3.37245466165779
H           16.12608198368478       -1.49967781177685       -5.44245235465344
H           14.71368486978396       -0.43043958598047       -7.15813939106554
H            8.74475400212089        1.77653245386520       -6.43741552113136
H            7.26241678028001        2.92420564711632       -8.02076875211010
H            7.42536855436421        2.46613712492792      -10.41782115348922
H            8.43191312456289        1.24153912618230      -12.27658042327448
H           10.00868727923054       -0.43162996692128      -13.11012546170948
H           11.49273620883472       -1.61959648029156      -11.54187247427578
H           11.41974223019563       -1.11788858962106       -9.15834569037916
H            6.25904699140433       -0.18809849807048       -4.85057158202236
