64
 energy: -12.314128111460 gnorm: 0.000833421824 xtb: 6.5.0 (97a52f5)
C            1.86021814798156        1.63071803310449       -0.20063439461855
C            2.80928868588708        0.52410369140467        0.23014612559925
C            3.28954696700735       -0.33207155943124       -0.94177303097251
C            4.24650032961208       -1.43838272496435       -0.51505973978179
N            4.77642749531185       -2.23210620352512       -1.64531913625748
C            3.78995506760374       -2.78036774869616       -2.60148402855948
C            2.72386583601456       -3.64196929766874       -1.93734221286098
C            1.73718711564153       -4.24422366430673       -2.93724320879085
C            0.67147330340080       -5.09853633457385       -2.26994956616119
C            6.15600289981015       -2.48259755827826       -1.78103489244784
C            7.01186240496350       -2.47948968259078       -0.65831251931625
C            8.34817512942953       -2.70995359188671       -0.79079823959706
C            8.92764491502104       -2.95988518652341       -2.04767346201551
N           10.25614704000445       -3.17765572495339       -2.14076356875422
C           10.74366971276802       -3.40513255206860       -3.34780545286149
C           12.16552166995407       -3.64861705330790       -3.45364602133265
C           12.98056249501704       -3.63054578950447       -2.31992292384267
C           14.32928727134185       -3.86389437309851       -2.41754618554449
C           14.89986750127254       -4.12244578755937       -3.65409320019562
C           14.11409269824644       -4.14449401516997       -4.78066405161338
C           12.74632798225138       -3.91039858106164       -4.70031145336616
C           11.92675102354148       -3.93300110388398       -5.91317797583987
O           12.48249887714424       -4.16224060119122       -6.98546454367286
C           10.50569680842171       -3.67786643852940       -5.80589045373337
C            9.67662748758207       -3.68653690640340       -7.01262582948759
C            8.39340733579449       -3.12963899125769       -7.03965422930397
C            7.62050756337939       -3.14036872418902       -8.17759077628315
C            8.10155944850157       -3.71305893266142       -9.33665350846201
C            9.36404359816714       -4.26846059446053       -9.34701601789948
C           10.13500616710026       -4.25077026187019       -8.20805621533878
C            9.93961024806466       -3.42734068348487       -4.53249380035437
O            8.59426912640735       -3.21374670536562       -4.43061496070868
C            8.08579662410348       -2.97431316086321       -3.18096781172026
C            6.72231841547593       -2.73628636241319       -3.02394000511080
H            1.51989770258114        2.23226752953912        0.64494331819847
H            0.97527370273889        1.22215578881736       -0.69116253528997
H            2.33916322624343        2.30599120281309       -0.91157189343110
H            2.32397303574949       -0.12119534659317        0.97431380862402
H            3.67796949342789        0.95133806123703        0.74858572185181
H            3.78106372631169        0.30249116555007       -1.68885848182660
H            2.42333996850932       -0.76070755644256       -1.45740447508730
H            3.76807777688173       -2.11694669008871        0.19618845928185
H            5.08641727919405       -0.98651991369036        0.01813561092131
H            4.31375440822188       -3.38316818850777       -3.34642813467439
H            3.33735597838145       -1.95240225236169       -3.15312217096627
H            2.17615675077590       -3.05469948239925       -1.19270879218247
H            3.20990331979889       -4.44204173842549       -1.36687734450681
H            2.28812555980613       -4.83664873770410       -3.67944873827706
H            1.26685881202862       -3.43562413602049       -3.51202079205215
H            1.11897701308048       -5.92425988537473       -1.71402314581965
H           -0.02236095742623       -5.52934285164626       -2.99522309251736
H            0.08399130844418       -4.51339000018902       -1.56013214428907
H            6.59370601605188       -2.33294257767265        0.32131360479662
H            8.99146661334671       -2.71092697607734        0.07158620154182
H           12.52731089916885       -3.42871921800815       -1.36512987447136
H           14.94533859354266       -3.84612683395534       -1.53365330428474
H           15.95894455799398       -4.30568697361854       -3.73135713898619
H           14.54135206571531       -4.34220603563216       -5.74903468517587
H            8.00281580892605       -2.68018543860634       -6.14673554625643
H            6.63532866831843       -2.70312965149849       -8.16307188575147
H            7.49634200326185       -3.72406228789807      -10.22832048652152
H            9.74927354477343       -4.71153321770980      -10.25086138224471
H           11.12354716996970       -4.67117244410720       -8.23369955008512
H            6.11781856195585       -2.70913014249922       -3.90942383929948
