80
 energy: -13.753096318597 gnorm: 0.000439349578 xtb: 6.5.0 (97a52f5)
C            1.51998397925593        1.09547811288019       -1.24981974759068
C            2.93084393264116        0.54421223213513       -1.13151006666203
C            3.47045486161663        0.58527049898483        0.29894558021355
C            4.87704174516894        0.01857970824276        0.42061102490745
N            5.46214476106370        0.14913157426871        1.77539844434470
C            4.76018694048737       -0.62013325402598        2.83333091002681
C            3.83148922013901        0.18799079899554        3.72520878523647
C            3.23553115767933       -0.66433000393427        4.85238660286872
C            2.31520270345819        0.11126968172644        5.77771350863691
C            6.89278551133846        0.17089002867003        1.89111653592434
C            7.59330294436996        1.35229094202562        2.21961971680434
C            8.87090636711498        1.30101411057450        2.70294304250085
C            9.52008259361221        0.07235715451700        2.92175869588797
N           10.67876292173396        0.02233993740569        3.62798468358266
C           11.01236736174642       -1.16628440540342        4.11585937433733
C           12.04483841341453       -1.24971587574810        5.11900109569406
C           12.83469902797134       -0.14447257281320        5.44008512359626
C           13.79718460980168       -0.22981495626135        6.41109106713382
C           13.99302646243587       -1.42026081889660        7.09639060320769
C           13.22167080568106       -2.51504570855133        6.80505939957265
C           12.24280444109629       -2.45087945723667        5.82041875991364
C           11.41808099105532       -3.62165791285683        5.54801597395991
O           11.60540982646865       -4.63777918133030        6.20929790218063
C           10.43385732923561       -3.54766912381901        4.51152819853906
O            9.55027681459612       -4.60109124047797        4.17030713247264
C            8.76606807727758       -5.32750373262545        5.09913512476165
C            7.48010662462591       -4.99455676238982        5.42280974278114
C            6.53161241232678       -5.88940010806052        6.23457104144214
F            5.38320307862440       -5.23945833117355        6.43575477369724
C            6.09933107366082       -7.18967584639019        5.44400623564896
F            6.70290073361934       -7.21327661272069        4.24481430091469
F            6.39840531388038       -8.30033069945827        6.13538903325009
F            4.76821162245368       -7.15429313361891        5.25775202565959
C            7.04762546138305       -6.16983332420561        7.69381936526784
F            7.80686363930791       -7.27221053003371        7.76017647564693
F            7.75050153555378       -5.10302404437056        8.10534305097684
F            5.97813078345971       -6.33449383754429        8.48987818847542
C            6.89336600397055       -3.73252732767193        4.77512831497498
F            7.87549064172443       -2.86392643829661        4.56808844546652
C            6.27523121216371       -4.08256559046347        3.38125846925733
F            5.75301895197113       -2.98082964802525        2.84419743823919
F            7.24550220998004       -4.54783472293630        2.58130921030202
F            5.31856228830718       -5.01059163357265        3.52752868436935
C            5.86676308608335       -2.87992167722197        5.61955655378431
F            4.60457497839497       -3.26768524273751        5.39266349303999
F            6.17665748030828       -2.96622830410006        6.92031802352644
F            5.97947422677716       -1.60414220578165        5.23157574466472
C            9.51716691352304       -6.55688370682446        5.61171005768946
F           10.63385511456640       -6.72572710577845        4.87564192845880
F            9.85491491477993       -6.37537942741305        6.90012235884912
F            8.76637866729398       -7.65935020082039        5.48252442582368
C           10.30359792797345       -2.36039548599446        3.77622550750425
O            9.40891701325551       -2.33921044876143        2.73841110083836
C            8.85855260998129       -1.10722562393969        2.50293243956876
C            7.58204287843835       -1.03531674352314        1.96456580199013
H            1.15321390624317        1.06177211607134       -2.27713573407746
H            1.47312865845235        2.13335530469154       -0.91819550298841
H            0.82199229750220        0.52755504606321       -0.63365233514766
H            3.60850451727886        1.10156889869360       -1.78970551937383
H            2.96242669027962       -0.48867625106399       -1.49952848671921
H            2.79227387263215        0.03399704301623        0.95819683180241
H            3.46207975434696        1.61617155720185        0.66889821983301
H            5.54585003528012        0.52967768294919       -0.27656571871911
H            4.89584808922197       -1.03723728720134        0.13800496155169
H            5.54300964126009       -1.05795721640633        3.46346049905669
H            4.23827752817994       -1.46787901102365        2.38152301710641
H            3.02997550137062        0.63666986879385        3.13080173653387
H            4.38430583263931        1.03206359112685        4.15172635423185
H            4.04959163060103       -1.11469786217313        5.43505919244583
H            2.70442729495303       -1.52106760809700        4.41837013760638
H            2.84271068249239        0.93900422186647        6.25329991091022
H            1.91377067952177       -0.52093436565105        6.57221282080045
H            1.47010943609914        0.53309107575574        5.23268412092836
H            7.07659486649455        2.29265361539141        2.14464901222380
H            9.37644446234004        2.20117589965850        3.00488430143995
H           12.66956590594380        0.77701549458044        4.90885326147392
H           14.40217312089112        0.63000495659544        6.64702254276074
H           14.74859211475678       -1.48243927440668        7.86265496333848
H           13.34764512320223       -3.44568249904205        7.33436640139261
H            7.07625515915499       -1.96463676996963        1.77315530740296
