107
 energy: -21.100721998430 gnorm: 0.000820190045 xtb: 6.5.0 (97a52f5)
C            0.50903254608757       -0.19296452222181       -1.31509734704286
C            1.93959913483261       -0.01663742512841       -0.83376357760651
C            2.69747207622585        1.05463521191331       -1.61552536730465
C            4.12162973110914        1.25700335170638       -1.12779087123622
N            4.79906619593840        2.31867320349523       -1.87244170800771
C            4.45378888497899        3.65410609845978       -1.60034608184630
O            3.51039735518075        4.02503186090768       -0.91705790810937
C            5.44132286971397        4.45795323836043       -2.29923186574988
C            5.84379649510948        5.78265706141612       -2.55051258914612
C            5.18544891807118        6.97598012562233       -2.04450920447854
C            3.92826715548006        6.88485386862613       -1.43716123192297
C            3.26727493051395        7.99627733866828       -0.98479391143025
C            3.83072563147824        9.26799153693513       -1.09975077301677
C            3.10849395359884       10.43376649720958       -0.62313270264125
C            3.53057296579167       11.73795124142572       -0.65579486945675
C            2.60234846069131       12.65623300778364       -0.11978480646313
C            1.45424365951125       12.07808142652016        0.33350317982778
C            0.35310446436668       12.79909016735042        0.92190564935163
O            0.31229968025979       13.99230513151219        1.07647818931613
S            1.52083701571207       10.35720371041130        0.09370198294061
C            5.10128273516840        9.36437109159175       -1.67292617193391
C            5.75995557520713        8.24904184749519       -2.12574889760708
N            6.95555835633872        5.68841107137414       -3.39841675428727
C            7.65689907233469        6.72770073420246       -4.15410874638124
C            6.75367625175524        7.40708556173809       -5.17182686623913
C            7.46058445245006        8.50325621275085       -5.96659334581589
C            6.54555675356899        9.18029366674287       -6.97341545456587
C            7.28264578513419        4.34966962845860       -3.67773297069569
O            8.19952699041420        3.95672066293973       -4.38441756656953
C            6.30085819238913        3.56075481071813       -2.96465425992146
C            5.89440002050980        2.23689744632401       -2.73555452386085
C            6.50902666514962        1.04384145480046       -3.29218309439782
C            7.82110906677585        1.07967250872948       -3.77485779697993
C            8.42813996493459       -0.04346739465060       -4.27446598292264
C            7.74405984267001       -1.25938284459354       -4.34397696929391
C            8.39737348925573       -2.46962540588329       -4.87649423096301
C            9.74950215961852       -2.72383505093033       -4.62898042339280
C           10.35544226642012       -3.85556110088721       -5.11262418331796
C            9.64112312203780       -4.78083146848419       -5.87383513995321
N           10.27043816926224       -5.96133511450381       -6.36973237472222
C           11.32787837585367       -6.58748879260477       -5.62602457932126
C           12.43156574817665       -7.13069831676483       -6.27671942658772
C           13.43382164890518       -7.73974950099745       -5.56479080157993
C           13.37726684473029       -7.83512975210890       -4.17190884592908
O           14.44196844319890       -8.47449479999258       -3.52458331533233
C           14.32103158822435       -8.55321483067046       -2.12555291279406
C           12.26595089108356       -7.28919750386727       -3.52392433142465
C           11.26437957544319       -6.68013849026788       -4.23838772436611
C            9.85135328202993       -6.54184309622648       -7.61504108351287
C            9.76293856594901       -7.92281046466063       -7.76251004168467
C            9.37866561827625       -8.47573831335409       -8.95783690173966
C            9.06840631547563       -7.67423426605870      -10.05951376994927
O            8.68862129045827       -8.32148280960672      -11.24205111940539
C            8.42244507186832       -7.46470289311011      -12.32517992903810
C            9.15917829334805       -6.28815658512609       -9.90573618722086
C            9.54294213306168       -5.73702809356628       -8.70830923852543
C            8.29409172516479       -4.52552150421668       -6.13112472475847
C            7.68447723643522       -3.39891672100810       -5.63973589490852
C            6.41716251444150       -1.28744359525411       -3.90714726954945
C            5.81460127302047       -0.16494421720861       -3.39757138564593
H           -0.02272065492336       -0.96049863426798       -0.74896506763772
H            0.47938736431064       -0.48067980630311       -2.36724023083582
H           -0.05581368734877        0.73584815520698       -1.21952904554840
H            2.48297035627112       -0.96797343986947       -0.90246978965864
H            1.94955144862656        0.24051093389209        0.23337976490535
H            2.16484488206721        2.01140781309130       -1.54989582593272
H            2.70442919079372        0.80747635346693       -2.68301193035562
H            4.70619535746160        0.33542403689161       -1.17103748677435
H            4.11618514799412        1.55516547252315       -0.07453332685707
H            3.49183605682272        5.91304831497513       -1.29708135535653
H            2.29990770890582        7.89840399082416       -0.52414668548295
H            4.48410841244633       12.04260513303209       -1.05638724322328
H            2.76833366995569       13.72160451617616       -0.06502481925004
H           -0.50693411554298       12.23435514012842        1.25318341989186
H            5.57013130215357       10.32862702311365       -1.75527085302542
H            6.74882354690897        8.35971992406717       -2.52409660199809
H            8.49354963951640        6.24137109468635       -4.66745776327872
H            8.11769026061094        7.43811348462628       -3.46489692033786
H            5.87441066247529        7.82316822143234       -4.66806770056564
H            6.35103026383862        6.65051989003924       -5.85579332834284
H            8.33363311359348        8.07561125650049       -6.47577126736552
H            7.87217781954995        9.24589133825821       -5.27124451578481
H            6.15556097465731        8.46243107139092       -7.69674965403637
H            7.05981756816508        9.96449261101835       -7.53304288341099
H            5.68687907930228        9.63828223314571       -6.48001950918864
H            8.33992633666493        2.02176174168780       -3.79024797104113
H            9.43516302835294        0.01368461767178       -4.64969256662283
H           10.31253651720314       -2.02705579747249       -4.03288207068213
H           11.39794626926224       -4.03808503648419       -4.91964663494566
H           12.48878509211790       -7.06011214784986       -7.34874871632758
H           14.28736959412479       -8.15877928128308       -6.06730714047098
H           15.19503684788802       -9.07352662738218       -1.73224116242310
H           13.42517755996640       -9.11646736371754       -1.86137688138037
H           14.28442312917981       -7.55011261692653       -1.69907666027745
H           12.19073535402256       -7.34718994933447       -2.45358682348795
H           10.40598117963950       -6.27377839629726       -3.73265830793734
H            9.99666593142823       -8.55074724234576       -6.92071627054190
H            9.30975729502031       -9.54292248438467       -9.07190580134574
H            8.15837129040680       -8.07386647180300      -13.19038048669794
H            9.31152096908544       -6.87924036510388      -12.56281685502718
H            7.58417221933330       -6.81022342049106      -12.08351369281961
H            8.92836897286470       -5.64352427405272      -10.73389188034441
H            9.62307284331571       -4.66929445980137       -8.60208801422504
H            7.73337061912618       -5.23764948066637       -6.71061052008425
H            6.64709881649855       -3.21293159573533       -5.85654869000831
H            5.86890894861912       -2.21187370197116       -3.96114383902096
H            4.77782833849183       -0.20269767133278       -3.11884734225682
