106
 energy: -21.859250142934 gnorm: 0.000497660758 xtb: 6.5.0 (97a52f5)
C            0.49188029994213       -0.74961071941794        0.47260684924641
C            1.97695529331717       -0.48649969069992        0.65886446522227
C            2.50906133060724        0.58641847301357       -0.28906340779172
C            3.99085331035531        0.86739194838196       -0.10563798487189
N            4.45748816695870        1.90560100728556       -1.02425058526430
C            4.18621003783773        3.25015070365635       -0.69564848976821
O            3.50477223127566        3.64300858968487        0.23614080350451
C            4.91806058601493        4.03512998238555       -1.67528063890211
C            5.20980960366861        5.35932890674182       -2.06065520448439
C            4.66580333637722        6.56297375181307       -1.45590815171933
C            4.65708017237024        7.78841606589715       -2.12942875365484
C            4.15163127003168        8.91698567613900       -1.54035307057506
C            3.60209604801002        8.88024492088108       -0.25172023036688
C            3.09903930886313       10.07498461816824        0.40380214681559
C            2.50637586811289       11.16593515792657       -0.18568746742724
C            2.42531027774701       12.44377781797728        0.53910878075025
C            2.51348135076007       12.52788557338173        1.93182559295858
C            2.50464474485182       13.74410707163994        2.57318802058904
C            2.41043953418001       14.91548602684856        1.84525407316496
C            2.31064695645883       14.86148977010552        0.47617295386268
C            2.30713411636281       13.64367620121485       -0.18814326520314
C            2.16461717754326       13.62511741547347       -1.65007064771937
O            2.24770137703584       14.64751393560356       -2.30561839030211
C            1.86554112030623       12.33626638562290       -2.28644480449809
C            1.40700683831242       12.31140026768455       -3.59587680604596
C            1.02512800913839       11.13004071784215       -4.18537178621998
C            1.08056220325063        9.95285312292386       -3.46258577537547
C            1.54258137825665        9.95918222809716       -2.16836592504928
C            1.98299846407286       11.13768659721556       -1.55986393525463
C            3.60261959894769        7.65159683593042        0.42015447934687
C            4.10165926930136        6.52390662668842       -0.17572954104989
N            6.12146828053199        5.26447980519490       -3.10414871955218
C            6.92600831712891        6.30611610564085       -3.74293501142324
C            6.46909952289211        6.57244589866072       -5.16717620212881
C            7.29299442216966        7.64893715573388       -5.87141797546463
C            6.84003244013552        7.89517490931554       -7.30099647554776
C            6.39040064626955        3.92013664036361       -3.43574058706376
O            7.15859001422432        3.53115143393457       -4.29902951415390
C            5.59176370795443        3.13276598812794       -2.51039362410100
C            5.28246160017068        1.80811386282276       -2.13784276388734
C            5.76408923903013        0.60466324197308       -2.79423607347168
C            6.86930320241382        0.65929459112217       -3.65042343790472
C            7.35523159368539       -0.46470514228746       -4.26164243204013
C            6.75804395247256       -1.71512750639792       -4.05439955201618
C            7.23100769852064       -2.91506221965218       -4.72155581166999
C            8.51938954308777       -3.22320459693232       -5.08644623326936
C            8.76910175829365       -4.27396383633659       -6.08584554191318
C            7.83359567007039       -5.26977211316307       -6.38314466877165
C            8.06863244532156       -6.19509312712793       -7.37265202672046
C            9.24411981591287       -6.15591086802855       -8.09899400860945
C           10.18636789860658       -5.19617671098880       -7.81934353499575
C            9.97164041966525       -4.26024125119358       -6.81818915463025
C           11.01809240160353       -3.27173148303696       -6.52703450601323
O           11.98045935976792       -3.13746583156397       -7.26036193643914
C           10.88915948962351       -2.48971609356128       -5.29138153036615
C           11.98341590525555       -1.78004141638597       -4.81740697261917
C           11.92626325148792       -1.12028830783378       -3.61320525674036
C           10.77247659268662       -1.17730206011843       -2.85377807556943
C            9.67649024124006       -1.86669426844862       -3.31453791493532
C            9.68884753490783       -2.50485734314464       -4.55779077107313
C            5.60929648147657       -1.76007241077912       -3.25427921749683
C            5.12928343430940       -0.63265049314009       -2.63997266894896
H            0.12194109593797       -1.51647413839076        1.15626799509994
H            0.27473861911832       -1.08277654240842       -0.54359776320212
H           -0.09313739161526        0.15503619379290        0.64630272461674
H            2.54707704166488       -1.41325557374580        0.51362113741388
H            2.18059070419068       -0.18627738192837        1.69490584161440
H            1.95275704404838        1.52075363589746       -0.14568190861371
H            2.31344104931051        0.29943307765219       -1.32823626419125
H            4.59925440767630       -0.03277803404482       -0.21764111862408
H            4.17906425244006        1.22660116532651        0.91114561283703
H            5.00791242834588        7.83637654781652       -3.14320607882333
H            4.17669496320603        9.85500281639880       -2.06730489254370
H            3.30341362613453       10.12979846041360        1.45878482283944
H            2.56878153417739       11.62873758061489        2.51833126383604
H            2.57326729000200       13.78587330378319        3.64782458994642
H            2.40958127273653       15.86751650065461        2.35007257586733
H            2.22918250117135       15.76224799294562       -0.10811352586071
H            1.33970692257295       13.24298305079954       -4.13154422581807
H            0.66586423806298       11.12420430580975       -5.20120977304340
H            0.76018638613540        9.02877543954809       -3.91496571525350
H            1.56203944401334        9.04231296147720       -1.60620415998159
H            3.17753182692339        7.59764731078800        1.40769247333574
H            4.02545303772197        5.57461350426609        0.32398394170166
H            7.96378288111720        5.95784768401564       -3.74354195792152
H            6.91930508709129        7.21154909252054       -3.13207430379406
H            5.40904706796912        6.84963542097247       -5.16954243023954
H            6.51677391578737        5.63453638952647       -5.73388416275933
H            8.35218910573787        7.36104180029217       -5.85528731552057
H            7.24213330246630        8.58018521764465       -5.29239438189673
H            6.92014580756090        6.98750267030071       -7.90144643398998
H            7.43503538191109        8.66767160835414       -7.79251536088731
H            5.79658451991462        8.21276847179151       -7.33522476144709
H            7.31140586334473        1.61637419538249       -3.86152979726785
H            8.19331926095322       -0.39168554872519       -4.93293647579265
H            6.45329734490632       -3.58919250784297       -5.03489460003670
H            6.92130007494905       -5.33137299450425       -5.81795361766079
H            7.33336479993696       -6.95372971576793       -7.58526096010658
H            9.42344761097745       -6.87874877634638       -8.87779425001317
H           11.11144286259768       -5.15305988033021       -8.36881260330214
H           12.88346840773277       -1.77422776781714       -5.40848955980502
H           12.78372690873763       -0.57540678881465       -3.25405253741056
H           10.73246335901247       -0.67869564763700       -1.89930935943087
H            8.79072576769857       -1.92340476620469       -2.70694326272819
H            5.10467887483996       -2.70199973848688       -3.12390260143845
H            4.21954334271898       -0.69144913044696       -2.07276792349158
