152
 energy: -31.965421115031 gnorm: 0.000788366580 xtb: 6.5.0 (97a52f5)
C            2.34589258052401       -0.45361312295542        0.58114775178829
C            3.84833570894093       -0.38256134395991        0.36436937763487
C            4.22577538633597       -0.24185014378671       -1.10876905028804
C            5.72388771761655       -0.16251515144069       -1.33869438206072
N            6.03423834486376       -0.01886655590762       -2.74696000465594
C            6.42817862840306       -1.16122640009925       -3.45435070574435
O            6.52357877390645       -2.24549360424155       -2.90457050099235
C            6.71666723532772       -1.00632054353073       -4.88068329972092
C            7.13461208413987       -2.08841743315655       -5.62308102761932
C            7.38982268156276       -1.96464944728974       -6.97060348322267
C            7.22559099016408       -0.75657424678039       -7.64882268585657
C            7.42609321612035       -0.63127508341825       -9.08633965256932
C            7.48455635256362       -1.74287269077217       -9.96781315961249
C            7.05260387095868       -3.10342076602138       -9.57607181443686
C            7.91844723525286       -4.19288348573491       -9.69401277641271
C            7.54373934212514       -5.43606425519980       -9.25159025978471
C            6.28736080760547       -5.64734780082572       -8.67513856668798
C            5.90090130977005       -6.96643576195534       -8.13546981558690
C            6.78640424101390       -7.71745499185164       -7.37581947558113
C            6.51409765117337       -9.13281764553387       -7.04589563960451
C            6.78506585947265       -9.62536925448478       -5.76857766517615
C            6.54501086227988      -10.94387592255865       -5.45478173511634
C            6.03547127769268      -11.80144822196030       -6.40893137606522
C            5.77052359958556      -11.33682959389603       -7.68136769331612
C            6.01016354177913      -10.01931672086871       -7.99936356471765
C            8.03605565559718       -7.12400652218605       -6.84917725780776
C            9.23897864427326       -7.82771894986546       -6.92087306761750
C           10.40413185211471       -7.28364458084890       -6.43004163716173
C           10.39390645591888       -6.03036828118055       -5.85147606128001
C            9.21252412108889       -5.32294714210768       -5.75959437735281
C            8.04487851076029       -5.86357469097799       -6.24805762097122
C            4.52496141682505       -7.43898325986035       -8.40689700252519
C            3.73544201039418       -7.99235973717350       -7.39795748753669
C            2.45239397011101       -8.41636867438174       -7.65929260987375
C            1.92662516459422       -8.29017349540482       -8.92929330734435
C            2.68750674096454       -7.73456408501726       -9.93806029686580
C            3.97142997094856       -7.31001559661860       -9.68094981041651
C            5.40130861669942       -4.56881150725411       -8.61325350983675
C            5.77530711676345       -3.32461757225847       -9.05318015803356
C            7.90049194992310       -1.55106246175096      -11.29011760127348
C            8.20570158267778       -0.31238367926913      -11.78909417637670
C            8.05571547882813        0.82890383540331      -10.96468768355154
C            8.34183033621755        2.11352112904558      -11.47478666087772
C            8.19974208202661        3.21247171349932      -10.65664932815644
C            7.74524234112497        3.07693364591843       -9.36372868224415
C            7.39408465852062        1.83799471317953       -8.82673573212481
C            6.84441488946273        1.69160080172970       -7.48530534855499
C            6.32002721087734        2.77453548531886       -6.73140344489203
C            6.00461874953512        4.09214428532106       -7.32770094180498
C            6.56506058845124        5.26340948206550       -6.81353404055668
C            6.33694671356584        6.47292710356440       -7.41880089525397
C            5.53710640081644        6.56747346545488       -8.56189572220274
C            5.34031065605076        7.85543089406836       -9.25662428440845
C            6.40142548436725        8.72463275350959       -9.46763886213088
C            6.18256973065124       10.11682149163656       -9.91479158692893
C            7.01704778779388       10.69082042976465      -10.87485940955762
C            6.82818063384727       11.99001472948360      -11.28846824314514
C            5.80743716471425       12.74718595734931      -10.74969339159649
C            4.97737420602782       12.20175473292367       -9.79121663245482
C            5.16361835687787       10.90335539507002       -9.37428238196616
C            7.80067156495300        8.28527358852435       -9.26679882838347
C            8.71250655895046        9.10523171157532       -8.60072513098265
C           10.01529302566139        8.70296484174511       -8.41221407221779
C           10.43868592710351        7.47870096196341       -8.88928059820376
C            9.55596424522018        6.65816191404762       -9.56174455111140
C            8.25265303161814        7.05678058960186       -9.75335714161182
C            3.97921675201200        8.16770188160111       -9.74662988445839
C            3.76926957397811        8.67379287750779      -11.03015591251267
C            2.49822900842740        8.94916598780577      -11.48065213326426
C            1.40933750623363        8.71815003797579      -10.66444202196632
C            1.59516934720367        8.20670441201955       -9.39588166847823
C            2.86491392199352        7.93082502495763       -8.94131546992933
C            4.93014864078456        5.40295881422413       -9.03916976097197
C            5.15882597310920        4.19222751236416       -8.43617836610821
C            6.02025740055120        2.58880809780050       -5.37706200447877
C            6.16550955146091        1.37739950272304       -4.75421333176202
C            6.58636823642548        0.25303445699643       -5.50471541984094
C            6.88106800922955        0.39826702912646       -6.88588504075376
C            5.85121104779677        1.24023436854973       -3.33123117446657
O            5.43928212380728        2.18597060916995       -2.68135912744750
C            7.61909661313608        0.67579195056403       -9.62250845267866
C            8.79522959561429        2.27871215822046      -12.85654153108050
O            9.02021358345808        3.38395653033703      -13.32011414619349
N            8.95089267348582        1.12120766474817      -13.62902524161791
C            9.37201762881910        1.27756560422552      -15.00693932068844
C            8.23023278043113        1.76234490057115      -15.88167136077274
C            8.62178329274383        1.92711109319235      -17.34846131905493
C            7.47264765362117        2.42273496476640      -18.21079818222053
C            8.64777373884770       -0.16871868605630      -13.17687924761244
O            8.74385038468338       -1.13646514362649      -13.91219255659092
H            2.08790340266250       -0.55325066985851        1.63756941243004
H            1.91154779607038       -1.30535488814348        0.05497837661854
H            1.85091231289561        0.44335349501204        0.20519239531157
H            4.33353418071027       -1.27615070117476        0.77811142965932
H            4.27234288785352        0.45897444164448        0.92757737337984
H            3.75503818688066        0.65323951967213       -1.53327640221585
H            3.81794133662526       -1.08151889575905       -1.68377746570888
H            6.22686256864765       -1.06134850366076       -0.96677382421623
H            6.15530183228035        0.69219879151104       -0.80792439776731
H            7.24348632311885       -3.03547431637475       -5.12396761494901
H            7.74150059710366       -2.82623246370463       -7.50549323720380
H            8.89922903933554       -4.03653347639747      -10.10875082055532
H            8.22580598776611       -6.26470080792740       -9.32977680024408
H            7.18052838653992       -8.95433859801590       -5.02575433800725
H            6.75522666845208      -11.30735138550721       -4.46233064058890
H            5.84707544841415      -12.83322295061620       -6.16126951613735
H            5.37534977816016      -12.00679333877875       -8.42723218042554
H            5.81020278861639       -9.65776374236156       -8.99294708696374
H            9.24441299067902       -8.80387767221091       -7.37425244871596
H           11.32609265885040       -7.83743587564963       -6.49785688858915
H           11.30729421437070       -5.60545034363648       -5.46865576074699
H            9.20622130626898       -4.34788261534310       -5.30174019233848
H            7.12072239364449       -5.31788603076355       -6.17100985615518
H            4.14472299202358       -8.08363638050279       -6.40683512791147
H            1.85736371221134       -8.84667675063272       -6.87065178801521
H            0.92180850154034       -8.62244121823735       -9.13243779000630
H            2.27563308246555       -7.63255221110432      -10.92861580570771
H            4.56715061591560       -6.87603752515717      -10.46528266244652
H            4.42553332260999       -4.72171909843598       -8.18589592251383
H            5.09579410440973       -2.49353799461115       -8.97555909860076
H            7.96968835267823       -2.39746518493989      -11.95009241381525
H            8.43931676055671        4.18096456756141      -11.05989108235414
H            7.67589823613499        3.95580317725298       -8.75144962695513
H            7.20688181962194        5.19936326240940       -5.95192214074723
H            6.78883439241565        7.36661428951121       -7.02495406216598
H            7.81118337101078       10.09795416570195      -11.29473059646811
H            7.47872973818995       12.41693986785350      -12.03399471942810
H            5.66078767841873       13.76409061658921      -11.07497059741061
H            4.18242538916794       12.79367321429761       -9.36816850520382
H            4.52163910271208       10.47970843268947       -8.62177262250564
H            8.37919461761246       10.05823986713750       -8.22770321806948
H           10.70597431802951        9.34493540162351       -7.89051779110586
H           11.45871851689639        7.16491619656631       -8.73932593354956
H            9.89035876445431        5.70591137327557       -9.93843606352938
H            7.56382630808744        6.42223562200435      -10.28311513382375
H            4.61904357304221        8.84677143958874      -11.66745414346222
H            2.35347622614327        9.34506339519128      -12.47238669979345
H            0.41468488716119        8.93428767414339      -11.01841453405259
H            0.74467969268712        8.02264644201957       -8.76020922012522
H            3.01294046516530        7.53210256519119       -7.95261443690677
H            4.29993853391245        5.46442451008753       -9.90937868489221
H            4.70884408917418        3.29629951301538       -8.82767737500916
H            5.64756626962950        3.41676774621126       -4.80060709715413
H            9.75456868986473        0.31379341222025      -15.35913683049408
H           10.20824043959710        1.98367315673279      -15.02835386347750
H            7.85771034588779        2.71365350353840      -15.48284779763333
H            7.38942786184711        1.06435563980764      -15.79336708103106
H            8.99748397449376        0.96952066324085      -17.73189359539694
H            9.47301376129387        2.61659556988748      -17.41970116171070
H            6.62919404163537        1.73111217517370      -18.17914090586564
H            7.76451246712707        2.53765338965282      -19.25666344257865
H            7.10827195835593        3.39092966430524      -17.86346648597547
