108
 energy: -22.480008143065 gnorm: 0.000512817260 xtb: 6.5.0 (97a52f5)
C            0.12308223202427       -0.67662066626096       -1.31709626961844
C            1.39451293459135       -0.09758025748201       -0.71951184148680
C            1.92707990039504        1.09633217755772       -1.50905806800821
C            3.20274087597373        1.67901757001060       -0.92887934203872
N            3.66804865823332        2.80885139396653       -1.70856074720643
C            4.27819032054610        2.54460373094568       -2.94076230049145
O            4.42025156468587        1.40131085180177       -3.33981854772755
C            4.72513210144749        3.68930411706116       -3.73582284103194
C            5.32802142222240        3.49408893428031       -4.95783418857877
C            5.72521454872792        4.56502142116055       -5.73365558473580
C            5.54809969103186        5.88029887369255       -5.31108499474767
C            5.89751801978911        7.01639911211424       -6.14623785451423
C            6.32163877588758        6.85338665913898       -7.46265458184542
C            6.66028150551331        7.93070451235953       -8.25404643381732
C            6.59860368892324        9.21574282940097       -7.76300627815921
C            6.17582210703565        9.43253500168305       -6.43295525671231
C            6.12877380887229       10.74788773436201       -5.91134383262368
C            5.77918129859634       10.94168768523640       -4.60239959434655
C            5.42671307879161        9.88329517330329       -3.75700362063154
C            5.23391879047352       10.20187159399491       -2.32264262473742
C            4.21689755749695       11.06492178081927       -1.90906365939275
C            3.99165398252122       11.29226781672059       -0.57518710685873
C            4.77468263998045       10.67328991669756        0.40383651003253
C            4.50951556673890       10.87230656521095        1.84242447351635
C            3.21511970895370       10.86897002589109        2.34215517890992
C            2.91978204452483       11.31825933298373        3.71954763843440
C            2.01242400500132       10.61501396612488        4.51297238401838
C            1.72673803724655       11.02919405015930        5.79401164877447
C            2.33401720606164       12.15664192108666        6.30897002885516
C            3.22555737182071       12.87317262674054        5.53662132167417
C            3.51323308107273       12.46272928043645        4.25494660111950
C            2.07760402453895       10.39311488294875        1.52317656466755
C            0.87830640939291       11.10579170508190        1.49407689388745
C           -0.18645125054261       10.66420014057518        0.74205323484636
C           -0.08161896486991        9.49885973918775        0.00983263910064
C            1.09140777957513        8.77266165118827        0.03509558528970
C            2.15917338429666        9.21089038863144        0.78478616381525
C            5.67860472771057       11.04098055390494        2.73450138031572
C            5.77368144813476       10.34981473680967        3.94316772616483
C            6.87281880520440       10.50069054186556        4.75755908629311
C            7.90372552344049       11.33736042211557        4.38071702329497
C            7.83375061182116       12.02134899860706        3.18391940979287
C            6.73565388825755       11.87395846236748        2.36708877986254
C            5.82709968407930        9.85528329208037       -0.01476785791130
C            6.05178508438100        9.62388417827098       -1.34784510449563
C            5.34717339382819        8.56552142457976       -4.27927078165181
C            4.80927160258938        7.43733618581702       -3.52713977579236
C            4.10108632341886        7.59092808724986       -2.33604045803111
C            3.65800970698897        6.51416107426221       -1.59794307258942
C            3.87591293570608        5.22565669204315       -2.02524874251348
C            4.52936040859531        5.00692434039289       -3.25981754261350
C            4.97208735870770        6.11326432868296       -4.03204532185021
C            3.41033427751884        4.09588467585643       -1.22220377422685
O            2.81617445466605        4.26852471683543       -0.17135375359067
C            5.80152724751224        8.33508180846892       -5.61394403395214
C            6.49456697033708       11.89182340172536       -6.74811751997412
O            6.42186061497723       13.03264531147912       -6.32487360803863
N            6.92490583989921       11.62714833426964       -8.05293386650098
C            7.28431474753672       12.75433300006760       -8.89043878360513
C            6.05287484452157       13.49206519606209       -9.38328130501683
C            6.38252537691907       14.69568183884547      -10.26384887831775
C            5.14195944596402       15.43565120713056      -10.73577028386595
C            6.97300410019784       10.34620617382175       -8.61516552810973
O            7.31180240803251       10.18057607795355       -9.77427319479672
H           -0.24750738636993       -1.52975742066550       -0.74517772081364
H            0.28770537775126       -1.01436103718372       -2.34151176870318
H           -0.67300432978087        0.06898953886446       -1.34793222959513
H            2.17226509012830       -0.87008863298838       -0.66457996083560
H            1.21976703084333        0.20599532641016        0.32066258838730
H            1.16506517774875        1.88256402243838       -1.56185249801378
H            2.11331240107060        0.80521835810189       -2.54986892451766
H            4.00044892210479        0.92963280567740       -0.90954051625729
H            3.04869937004572        2.01445436591956        0.10203114154526
H            5.47052367475148        2.48328104484441       -5.30079263719651
H            6.18804543156195        4.36540431154242       -6.68238272263957
H            6.37626988425452        5.86879185661524       -7.88886586535341
H            6.98405516711980        7.78767357472324       -9.27114751075437
H            5.80692923704761       11.94284269765434       -4.21016288201552
H            3.59117463944239       11.52665846261952       -2.65301385619276
H            3.19484585850519       11.94640202035709       -0.26705031868376
H            1.54196806058542        9.73479817237497        4.11016156314367
H            1.02816960389833       10.47149885432972        6.39574467726769
H            2.11046030695801       12.47878037206466        7.31271519546997
H            3.69678858944563       13.75559546750803        5.93708698875465
H            4.20248396783064       13.02478654580952        3.64936065612286
H            0.79919532538297       12.01401088934501        2.06609422616331
H           -1.10421546386109       11.22859648646023        0.72534306057192
H           -0.91656604027258        9.15418106460898       -0.57782567868884
H            1.16654334882583        7.85879800231133       -0.53003978610417
H            3.07260803441747        8.64312099807870        0.81300028351923
H            4.97242441282413        9.69192881716207        4.23170865695131
H            6.92905963281772        9.96323955045650        5.68984551354419
H            8.76421351108049       11.45366829534553        5.01895720363091
H            8.64060586939983       12.67135256553911        2.88787497758363
H            6.67828638702437       12.40617183035471        1.43334626019043
H            6.44710500791973        9.38474877494203        0.72834817497364
H            6.84825255631078        8.97074072730280       -1.65985301375670
H            3.86943852083368        8.57565374566592       -1.98020240068744
H            3.14245134974550        6.65866197352774       -0.66476579244359
H            7.88100985119001       12.38080177516560       -9.72933964366043
H            7.92886495142552       13.41817018200125       -8.30552399474110
H            5.46239779800976       13.81190020988752       -8.51617009291432
H            5.40868222585247       12.79213008248146       -9.92818995387179
H            6.97515194231435       14.36183493631508      -11.12543187988894
H            7.04177385441948       15.37746524048039       -9.71114997064749
H            4.48819542792211       14.78058875951740      -11.31384208852486
H            5.39009378685157       16.29183929796592      -11.36634066350874
H            4.55991189596493       15.80738578761167       -9.89091831262622
