47
 energy: -9.832326052779 gnorm: 0.000888923089 xtb: 6.5.0 (97a52f5)
C           -1.48325714653304        0.96639596317297       -0.08917254999230
C           -2.50291968952763        0.09032313641280       -0.02131094554755
C           -3.93080771554505        0.37611391874472        0.01001423752062
C           -4.44904950513821        1.56410607440404       -0.50519170955617
C           -5.80438013090260        1.81139543889214       -0.47613185210159
C           -6.66787036936985        0.88001275120516        0.06556579254351
C           -6.17320780219631       -0.30303953429548        0.57696511789159
C           -4.81983940866927       -0.55395509727241        0.54830486804613
Si          -1.73426489155692       -1.58754029314284       -0.04761580592429
C           -2.11688662613597       -2.51210261300490        1.51926878203081
C           -2.91192521691330       -3.63747254330258        1.48190864328442
C           -3.25587736719336       -4.27915410340533        2.65538914163027
C           -2.80131677414883       -3.79204344172304        3.86495015817614
C           -2.00369904938889       -2.66523261177331        3.90144980429104
C           -1.66304278451515       -2.02552145003411        2.72566102083977
C           -2.17570406508225       -2.51544462470152       -1.59933797653569
C           -3.15961249575017       -2.03777655043182       -2.43824891064441
C           -3.49218074399930       -2.73360076620488       -3.58355695795399
C           -2.83869669869874       -3.91209260290713       -3.88563818618431
C           -1.85514754925813       -4.39269804585816       -3.04370611345799
C           -1.52436804322816       -3.69216247398702       -1.90011225466035
C            0.00194992980596       -0.97928993930305       -0.08367505119379
C            1.22835481267761       -1.59844709324139       -0.08065838195767
C            2.37542770017115       -0.82642734778959       -0.10329545298229
C            2.28688051761009        0.55504376234905       -0.12768272494404
C            1.05693023318399        1.18014237282523       -0.12700061016953
C           -0.10929576992072        0.41334764313635       -0.10312388383211
H           -1.64568238820700        2.03131678096312       -0.09962514758425
H           -3.77929521983385        2.28494990666556       -0.94048005646550
H           -6.19215434755498        2.73257040183782       -0.87955837013828
H           -7.72751730026580        1.07662421401399        0.08783156960497
H           -6.84668229625391       -1.03147082361323        0.99863467759884
H           -4.42887057274696       -1.47307587129601        0.94784002312535
H           -3.25994613001433       -4.00605204971601        0.53158732904079
H           -3.87890193331995       -5.15823842246663        2.62628775579007
H           -3.06969691887676       -4.29176086617515        4.78153763805610
H           -1.64900037137893       -2.28387262677138        4.84507345473600
H           -1.04693811838186       -1.14196519034353        2.73774191558247
H           -3.66661837452446       -1.12217320451403       -2.18627583975236
H           -4.26065322441248       -2.35810103075426       -4.23960099745841
H           -3.09634591970647       -4.45643806248226       -4.77961460131284
H           -1.34658451689438       -5.31403711248242       -3.27730240629919
H           -0.76080799585505       -4.05647256065703       -1.23312173834065
H            1.28209553051101       -2.67331676701431       -0.05949692533908
H            3.34225314902330       -1.30275387764102       -0.10240528655309
H            3.18683350508040        1.14790238423896       -0.14622810496240
H            0.98387009388267        2.25370484941290       -0.14309308792706
