15
 energy: -2.109649691113 gnorm: 0.000750357639 xtb: 6.5.0 (97a52f5)
C            0.98502375413466        0.09565765843501        0.01296662672764
C            2.50444171942634        0.08643455082575        0.04696444347997
C            3.06320188531396       -0.44313957856875        1.36737220013734
C            4.58602674733209       -0.45655909271102        1.40486311188596
O            5.10915046977799       -0.97025275983541        2.61168434629872
H            0.59701574745320        0.47800757476107       -0.93382527596289
H            0.57563751391836        0.71860179409190        0.81046557728302
H            0.58070625578109       -0.90888449727824        0.15117604396867
H            2.89295898366578        1.09775476436297       -0.13169135429570
H            2.89770483409217       -0.51713770540989       -0.78162871471590
H            2.68942685509170       -1.45667857817815        1.55202218665175
H            2.68190027315949        0.15812883324732        2.20053997563831
H            4.99280680130021        0.54951995591251        1.24271120921960
H            4.98457752156036       -1.07836029624051        0.59438593152187
H            4.76371063799262       -0.45666262341458        3.37712369216163
