20
 energy: -3.041235389292 gnorm: 0.000435374801 xtb: 6.5.0 (97a52f5)
C            0.98154502928189        0.07082593455086       -0.10954420031827
C            2.50086367041457        0.03699031642721       -0.08430734246128
C            3.05150121051577       -1.10490214760361        0.76738218416635
C            4.57140383958506       -1.15197773468589        0.80249472084785
O            5.02856789682045       -2.23209549098010        1.60810906466386
C            6.39409494233889       -2.38019897666867        1.71857115300351
C            7.35384521710564       -1.45938318587035        1.03177525511418
O            6.89294460549801       -3.26842173439346        2.38105593198134
H            0.59924123862839        0.89054850201498       -0.72094087080130
H            0.57316899399012        0.19224834998783        0.89494347465808
H            0.57316918732836       -0.85735756058275       -0.51230284249299
H            2.89392399323483        0.99064343775690        0.29082079152982
H            2.89392419012207       -0.05068684305941       -1.10533031294386
H            2.67380946499358       -2.06538908437517        0.39951689616735
H            2.67380872820720       -1.02613516554430        1.79288462042639
H            4.97154744121492       -0.21979177149824        1.21597700745118
H            4.97154813797043       -1.28253721005936       -0.20888648304326
H            6.87010155581093       -0.67934346579029        0.44997831824632
H            7.99477006844456       -2.03071825534075        0.36201667503832
H            7.99477058849432       -0.98030791428544        1.77034595876641
