27
 energy: -3.899456506778 gnorm: 0.000158298425 xtb: 6.5.0 (97a52f5)
C            0.95822272882083        0.06080854346372        0.02002714025263
C            2.47838213945814        0.06106211257445        0.03459092657758
C            3.05441571810559        0.08561722237041        1.44976074799084
C            4.57602432942894        0.08606475117345        1.47552848479643
O            5.08697052627807        0.10912992966681        2.80499535996101
C            6.51090673544882        0.10980031543975        2.84351579975105
C            7.04238900059217        0.13454146501716        4.26930133566648
C            8.56884061419841        0.13577999507429        4.34057664682528
C            9.08931693201533        0.16056016764735        5.76871970302029
H            0.55667161874035        0.04318218244444       -0.99578391697045
H            0.55857569914315        0.94770245683057        0.51570928319222
H            0.55857671537203       -0.80835523519313        0.54617990921387
H            2.86220538095481        0.92241059878685       -0.52823709772698
H            2.86220634827262       -0.81929307411253       -0.49801653062763
H            2.68526540963400       -0.77427397185051        2.02040438907726
H            2.68526476923764        0.96478710921049        1.99022973630330
H            4.97062078055772        0.95785219748754        0.94218468344135
H            4.97062143844040       -0.80369860749194        0.97274636550177
H            6.86787067811815        0.98113488523779        2.28358158198673
H            6.86787296171821       -0.78043489654212        2.31414838567134
H            6.64157902331962       -0.72573487850481        4.81756641396336
H            6.64157700278839        1.01332034005968        4.78739005053471
H            8.95735318613742        0.99719633269440        3.78108167332200
H            8.95735516910565       -0.74452669432876        3.81130226987769
H            8.74076227759540        1.04807762038535        6.30052888068397
H           10.18102866042161        0.16125377632288        5.80862961352540
H            8.74076415609654       -0.70797464386358        6.33099816418846
