49
 energy: -9.301867190269 gnorm: 0.000556317226 xtb: 6.5.0 (97a52f5)
C            0.86906660101106       -0.27006659458979       -0.01093962124308
C            2.34980493569366       -0.59993386484304        0.08233302414416
C            2.97930338874545       -0.88464077493263       -1.28035399093140
C            4.46253806032810       -1.21351454276884       -1.19744977384663
O            5.02455432849234       -1.43700772917588       -2.48568488044800
C            6.39424049583826       -1.68386232666072       -2.49683797063736
C            7.00880467523443       -1.84331867104911       -3.74489297465348
C            8.35344144115281       -2.07983176902412       -3.85061809341397
C            9.16212656319320       -2.17463166615407       -2.71210893259333
C           10.57930785228598       -2.41173907970082       -2.86087599883572
C           11.45970235899265       -2.58160683867030       -1.85249497183957
C           12.85206479528880       -2.79171295900064       -2.06219379556459
C           13.73430701173264       -2.98427564980215       -1.05805721654070
C           15.12985496414429       -3.17768863736168       -1.26898347585394
C           16.00751462468891       -3.37717463923442       -0.26574904065667
C           17.43583407895171       -3.56503280498401       -0.41733476021303
C           18.22293867598155       -3.80156470685733        0.71450723443150
C           19.58123693508493       -3.97866428050221        0.60522680775905
C           20.19419666316905       -3.92454912485653       -0.63212127484461
N           21.63812818950890       -4.11190083141426       -0.74512180732125
O           22.28525717541436       -4.34805343490716        0.28521553189990
O           22.15824420689421       -4.02739439620383       -1.86687043611376
C           19.43323087148555       -3.69196191966310       -1.76205735448173
C           18.07384814769503       -3.51469457914477       -1.66123133053413
C            8.54769338398459       -2.02188455533792       -1.46302740726315
C            7.20185981120655       -1.78330967644311       -1.35668710589012
H            0.43172463308810       -0.06466434204762        0.96822574184540
H            0.30814326578734       -1.09433021320061       -0.45428550314819
H            0.69909569158546        0.60750196355179       -0.63676013488327
H            2.50383456578689       -1.46477015259047        0.74047788944278
H            2.89030135352086        0.22442747088787        0.56529900161422
H            2.84066686162538       -0.02417016271545       -1.94429618178504
H            2.45421649727340       -1.71067009195974       -1.77262954670176
H            4.62306013560874       -2.11378792009498       -0.59418328126982
H            5.00955922418776       -0.38975256970975       -0.72583586492054
H            6.39331765806627       -1.77005697032716       -4.62379548641476
H            8.80340696081402       -2.19441303999108       -4.82171788524777
H           10.95780347814671       -2.45275162175439       -3.86717713101364
H           11.11060579214027       -2.56170282459075       -0.83660584815878
H           13.21506190885427       -2.79155742133823       -3.07503535594834
H           13.37134152588091       -2.98928820800158       -0.04515963340393
H           15.48230790316398       -3.15853153828388       -2.28374705591425
H           15.62300728581424       -3.39885388936683        0.73886134444668
H           17.75161005975453       -3.84547535931395        1.68134256785509
H           20.18951923207236       -4.16164989649898        1.47479874914403
H           19.92841766614252       -3.65391662219652       -2.71754437937617
H           17.49938613272123       -3.33287195081326       -2.55143235974587
H            9.14137984060342       -2.08722680123599       -0.56915466015187
H            6.76204209115343       -1.67491178512777       -0.38232537077546
