43
 energy: -8.168424910876 gnorm: 0.000728559793 xtb: 6.5.0 (97a52f5)
C            1.02193876630003        0.12268904451497       -0.12040430245688
C            2.47255066400610        0.57551410731223       -0.12441071998891
C            3.06096383385361        0.69058376888626        1.28142999597867
C            4.52129547021588        1.11621111141369        1.28264927196732
O            5.04712275601773        1.20221176090101        2.60145987323381
C            6.40237579848690        1.51509227049619        2.67154580110057
C            6.99014840315281        1.56862364310925        3.95102935810332
C            8.31377036680701        1.85640255615512        4.11036567718995
C            9.13019283645853        2.10952425733458        2.99738757992977
C           10.50634973593899        2.40347492962592        3.11509031263372
C           11.28154059057128        2.64501267871050        2.02659570275441
C           12.71737772465595        2.93780970323133        2.17573028564516
C           13.40652471547436        3.68280661002985        1.22153334995666
C           14.74381972416997        3.97192471037940        1.36568670368105
C           15.44968265054741        3.52719918613200        2.47295567900878
C           16.90456461269023        3.80859513894858        2.61102612611433
C           14.77860786492768        2.76912406228581        3.42060936750166
C           13.43966110572013        2.48097425698731        3.27847904229196
C           10.65771808494390        2.61536947174509        0.69481336338451
O           11.34424834219344        2.85359596557261       -0.28883624206285
O            9.31362746736643        2.32148622417058        0.57558038710976
C            8.56258063713210        2.07049289220737        1.70955773519362
C            7.21064467929826        1.77403897798511        1.57215442371843
H            0.61416423670295        0.04293743523948       -1.13027163857766
H            0.39228970418939        0.82064280437622        0.43361532322465
H            0.91521433858575       -0.85396127877479        0.35438958166456
H            2.56586475425844        1.54207534182469       -0.63645714135900
H            3.08263904836227       -0.11920771136810       -0.71614089078740
H            2.96700465587716       -0.26633389437287        1.80692519088395
H            2.47779995781141        1.40139900968088        1.87738939209520
H            4.63657906989849        2.09668769661205        0.80755287876409
H            5.12653387489208        0.39619767894288        0.72120763871526
H            6.36380312098029        1.37252491081264        4.80279183071873
H            8.74742915845761        1.89077329109435        5.09477969950680
H           10.93331823985700        2.45323966254401        4.09944024431458
H           12.87634366664296        4.01279659893948        0.34516466155551
H           15.25674090813285        4.54061975224330        0.60921605526779
H           17.16380887846796        4.76738781879325        2.16070808395220
H           17.49578765366230        3.03512188245120        2.11966817001669
H           17.20120234127423        3.84453443393397        3.65977219931595
H           15.32121916695419        2.39852294501421        4.27340051727243
H           12.94935590877155        1.86995783316693        4.01549113722170
H            6.80894448529907        1.75356646070876        0.57829829425100
