46
 energy: -9.705943256170 gnorm: 0.000878256196 xtb: 6.5.0 (97a52f5)
C           -1.72834937564215        1.05107974232670       -0.05433769581944
C           -2.66924490558936        0.08617268032710       -0.03666631749584
C           -4.11360090349290        0.21989042251400       -0.11239577484286
C           -4.69276872532201        1.46957763717981       -0.32254519777869
C           -6.05382464326998        1.58413686857496       -0.41850219027633
C           -6.80764968698450        0.44087172286522       -0.30244883563109
C           -6.16343463943125       -0.75367025815667       -0.09573470404634
N           -4.85324459808522       -0.89277015358494        0.00513971047762
Si          -1.75121393531872       -1.51316217035138        0.01430118106498
C           -2.03109352778490       -2.44900275224948        1.60051510156169
C           -3.32032223747572       -2.61784269204522        2.05390605257705
C           -3.57134229403201       -3.37728479467030        3.17765656707527
C           -2.52208589638369       -3.97036267614104        3.85087853162316
C           -1.22794449239427       -3.80056485139879        3.39994779130067
C           -0.98385632048618       -3.03894773403440        2.27393143789338
C           -2.10853841123246       -2.51194785305758       -1.51063310826445
C           -1.84948130975857       -1.97827231878464       -2.75391499828189
C           -2.13856732484922       -2.70581303444472       -3.89167402274196
C           -2.68738058850741       -3.96812370305621       -3.78055790705343
C           -2.94834973549967       -4.50162579371075       -2.53398855919852
C           -2.65879677365857       -3.77027312987118       -1.39910344412748
C           -0.07634591448631       -0.75476501846723       -0.05275233070090
C            1.19964105093029       -1.26153388800537       -0.10384458929044
C            2.27174565352033       -0.38985788923089       -0.15481259158873
C            2.05991756302866        0.97820666572892       -0.15812799918514
C            0.77995713268659        1.49059364366470       -0.11507871656660
C           -0.31199489871851        0.62229608597687       -0.06204756033976
H           -1.97679480714272        2.09809932180067       -0.09376848561640
H           -4.07021669656975        2.34138432763312       -0.41713332068426
H           -6.52095396090244        2.54137597855806       -0.58546927808901
H           -7.88222451616697        0.48112013090962       -0.37491574790018
H           -6.74646938132709       -1.65677080084158       -0.00041939392559
H           -4.12119574748856       -2.14055955053094        1.51752922533055
H           -4.58244543522183       -3.50657595349060        3.52755284911208
H           -2.71381558362520       -4.56505510407519        4.72917696459708
H           -0.40830962178774       -4.26173511389878        3.92632215889497
H            0.02059657168584       -2.89717379930592        1.91421487615027
H           -1.42602220314142       -0.99033191539419       -2.82454056662538
H           -1.93771841805120       -2.28748552864140       -4.86441262731735
H           -2.91443622455799       -4.53678662262199       -4.66760808393652
H           -3.38055975363805       -5.48501647783985       -2.44610013866502
H           -2.86721577263804       -4.16863577863424       -0.42063549234024
H            1.35050019625123       -2.32729462145409       -0.11278364566176
H            3.27644429653670       -0.77788286805019       -0.19380892922648
H            2.90234400885418        1.64919585260475       -0.19911457572339
H            0.61082278716264        2.55325376533108       -0.12731561871927
