74
 energy: -14.185715243548 gnorm: 0.000466412953 xtb: 6.5.0 (97a52f5)
C            2.08263147901457       -0.22380707732554       -1.11390499520779
C            3.44892711410426        0.32724872764912       -0.73837512471288
C            3.69759114165154        0.30618652479111        0.76920938887248
C            5.07245397064621        0.84692314598182        1.16110823996948
C            5.29966975114284        0.81916563306229        2.64781716086033
C            5.79051496308615       -0.29552855918100        3.28350712446011
C            5.92488886939751       -0.28679563236511        4.69905765286252
N            5.60723896647504        0.74523359989644        5.45841609471633
C            5.10891449664722        1.84806309596806        4.84677081686438
C            4.74353472172674        2.95038965588899        5.64728727191818
C            4.20520219477404        4.07578644084371        5.09999806081728
C            3.99941742830321        4.15289888835005        3.72180825992973
C            4.34490620855082        3.10848336029495        2.91669075247357
C            4.92044243498377        1.93081377979352        3.44988912169670
C            6.40776129229829       -1.49100755756956        5.38579322971097
C            6.25346670170021       -1.61137087835402        6.76435266551573
C            6.65988686013010       -2.73992668421429        7.44647333434507
C            7.25018102580319       -3.79321305032073        6.73740267551729
C            7.42943014572164       -3.66119174628494        5.36271756785912
C            7.01705256024422       -2.53508030492292        4.67938165250342
C            7.22042388592611       -2.40848426332226        3.20050936687135
C            6.12358258381814       -1.56098113820017        2.52940676727608
C            7.67138124603357       -5.02465264854298        7.41734816879328
N            8.45426890491585       -5.84335809462647        6.73959924019112
C            8.81512801062748       -7.00705830086108        7.33518439576434
C            9.63711047471770       -7.90049938008760        6.61715863059516
C           10.00963821877268       -9.10029179712008        7.14410718442281
C            9.57304676615127       -9.46996604608861        8.41710591478104
C            8.78160132991825       -8.62965123446977        9.14219232393410
C            8.38835031287278       -7.37004521415482        8.63132747999575
C            7.56889144710250       -6.46034746650663        9.35469402305136
C            7.05003282313060       -6.82776680723048       10.71792437732866
C            5.70904351925065       -7.55861274511101       10.65580098124727
C            5.15442912054133       -7.91873811507787       12.03340108286685
C            3.81664995894464       -8.63718115192913       11.95652507400269
C            7.20350065736914       -5.29066082574404        8.73376982136625
C            6.25796985691817       -4.30615946450401        9.37993110576928
C            6.48815726786717       -2.85178341127568        8.93035357290420
H            1.91336949783224       -0.20369636947615       -2.19289311452536
H            1.28247424882817        0.35204144626728       -0.64498789172063
H            1.96986450216401       -1.25806949553535       -0.78312808280228
H            3.55880642326735        1.35477236828778       -1.10991358826360
H            4.23927463813925       -0.24335345967230       -1.24409507846199
H            3.58477625829232       -0.71694747170294        1.14725928624951
H            2.91776985682099        0.88258228145121        1.28166835565422
H            5.19591932323758        1.86732451300337        0.78394610483880
H            5.85797968345564        0.28829664437360        0.64367265157893
H            4.89698594824607        2.87747940318861        6.70983461219186
H            3.93129124900873        4.90628036375096        5.73008471776477
H            3.56205002756977        5.04156980290456        3.29653836377899
H            4.16037982656201        3.18045139113494        1.86002913343773
H            5.79897507277049       -0.79952460357048        7.30252841406882
H            7.89835319613748       -4.46634691436122        4.82685610404713
H            7.26245520207314       -3.40933580349292        2.75226801015961
H            8.20355879558486       -1.95850603293259        3.01824570254707
H            5.20814525139233       -2.15658791042985        2.43383122146608
H            6.42897466278536       -1.32444955947784        1.50526661483972
H            9.96202757410297       -7.61028070174199        5.63326171728925
H           10.63706942146426       -9.76911680635069        6.57777075672123
H            9.86273986251286      -10.42527961465085        8.82368661929040
H            8.44179312600120       -8.94088161099950       10.11351260235742
H            6.96381602313519       -5.93704573510100       11.34712244876845
H            7.78789895848273       -7.44053723897766       11.24593146652109
H            5.81416951377350       -8.46614094559616       10.04902924481181
H            4.98087114802799       -6.94215255808481       10.11531396671351
H            5.05893043532086       -7.00509376650622       12.63510528194869
H            5.88677626741991       -8.53670341887604       12.56960793435431
H            3.06805469040785       -8.02381530463098       11.45160953169867
H            3.42527393228707       -8.88465996850058       12.94576826441740
H            3.90080327740218       -9.56870314263308       11.39386191976789
H            6.33391475647596       -4.36181248642783       10.47035266963471
H            5.23090112878561       -4.60538331552635        9.14002918865044
H            7.38233173217551       -2.44706584229002        9.41925577923482
H            5.65632577679823       -2.21164139395877        9.25082860882289
