82
 energy: -15.921007453544 gnorm: 0.000305483757 xtb: 6.5.0 (97a52f5)
C            1.80267436698607        1.99382717195238       -0.74497347010962
C            2.87496403061114        2.75729844854437       -1.50447133647418
C            3.91447695070718        3.38751730887169       -0.57890919401721
C            4.98096794789639        4.18256620616012       -1.31823653229033
N            5.96101509433391        4.78583844893157       -0.39755528064333
C            7.29155246625141        4.34947202220407       -0.33850367623736
C            8.08160704561073        3.65272652408243       -1.26024432867834
C            9.36505641555437        3.32464393927279       -0.91820379092927
C            9.91346023471572        3.66153553980602        0.34054328597830
C           11.30397961399014        3.28788923471030        0.67546047940837
C           11.62964989858576        2.81015649543588        1.94344006174158
C           12.92499734066794        2.46420347766683        2.25301585576548
C           13.92230304432289        2.58318312016649        1.30757754256695
C           15.35618028654624        2.22327872606476        1.65886514036917
F           15.97557183502051        3.33591917181409        2.10691044221172
F           15.34701701236522        1.27489732619145        2.61994456649122
F           15.97352561385833        1.75920635296846        0.55125232888495
C           13.61752551247504        3.06106663318266        0.05013057071983
C           12.32404301635076        3.40778672500391       -0.26643157367609
C            9.12930876510814        4.34223155550078        1.25702453977308
C            7.82221706333919        4.68947615826376        0.91797346950400
C            6.78187063135829        5.34723860861680        1.65497256785815
C            6.75147228778188        5.77163358289837        3.00233902572662
C            5.60286637775879        6.29608628992771        3.51454704389568
C            4.47225610554606        6.44172559269848        2.67975085557946
C            3.19635978530710        7.03930587413830        2.95064698471471
C            2.64530106179923        7.57696770138202        4.11316940693763
C            1.37740355018512        8.13292844693384        4.07259209795846
C            0.76585542448663        8.69584619347412        5.29501515104890
C           -0.58194570736312        8.48677872750934        5.58086818138401
C           -1.14755647336292        9.00744998603156        6.72205904333701
C           -0.38406708085187        9.74342543918329        7.60412677824914
C           -1.01552374678351       10.33873316530974        8.85147581904273
F           -1.40837851386158       11.59882351843277        8.56832518547129
F           -2.07934482991888        9.58670937750163        9.20658814330551
F           -0.09837772237574       10.34715628332312        9.84245425082902
C            0.95008441556159        9.96439203553819        7.33268920936573
C            1.52227255664512        9.44568981957855        6.19373477508643
C            0.67387862972676        8.15349313478807        2.84652049935322
C            1.20578800114493        7.63519023560826        1.69760971625516
C            2.48211701520893        7.06228566104255        1.74019250762469
N            3.27718223704693        6.48984248566249        0.73819306900460
C            3.06979713664908        6.79004765017122       -0.68955912299025
C            4.21106724671433        7.60922053958123       -1.27445365568343
C            4.02175793100690        7.94441307999316       -2.75299763007701
C            5.18452180066078        8.73757009007798       -3.32628622435412
C            4.48335304957760        6.06280219930273        1.32543806245741
C            5.66118988415349        5.44321881895131        0.81083606427217
H            1.06369262603591        1.54873594586142       -1.41401727789787
H            1.26859016437931        2.64774542035974       -0.05386460928504
H            2.23766058201127        1.18735354416881       -0.15289224816614
H            2.41493180246379        3.54006565570212       -2.12071777305745
H            3.37933756533422        2.09361515605961       -2.21818663180971
H            4.39774365477230        2.60929994505934        0.02291825307687
H            3.41414269224348        4.03313302432241        0.15077842932534
H            4.54678218573815        4.96576551339757       -1.94018175608772
H            5.51216296202021        3.52724590360136       -2.01265449445100
H            7.68270103213191        3.39292468175502       -2.22393414564564
H            9.97855464104250        2.78107974157222       -1.61536446747324
H           10.85258043548207        2.69982865375974        2.67964333791303
H           13.18099467554165        2.09184714734725        3.23071255237517
H           14.40987379032493        3.15480956320384       -0.67341047980932
H           12.09404089927400        3.79146814566828       -1.24513531046566
H            9.52475335998428        4.61470524348968        2.21754710984313
H            7.62827584817714        5.65460795038527        3.61376998985442
H            5.55023764528316        6.62158392881906        4.53806841664731
H            3.19736870628981        7.54391778980929        5.03367850765798
H           -1.17784006851179        7.89796463602502        4.90544681058399
H           -2.18819021394108        8.84650074999548        6.94840596604484
H            1.52987792781410       10.54694224949866        8.02883941154093
H            2.56102226897865        9.62992192414718        5.98145344355986
H           -0.30281328550840        8.60452609622036        2.82372101825519
H            0.65359240144916        7.65308999306802        0.77562838136427
H            2.13135088915942        7.33916284067870       -0.79716478292364
H            2.91833071151026        5.85686243139171       -1.23258589232361
H            5.15696770781467        7.07473972712432       -1.13560882938649
H            4.32517143581068        8.53265385098265       -0.69508781201744
H            3.08402739821784        8.49980976978767       -2.88187717783011
H            3.88226007799072        7.01591447885196       -3.32108704844144
H            5.31690818627638        9.68193259491325       -2.79621485973182
H            5.04074979932943        8.97108563204621       -4.38300387318871
H            6.12081488594157        8.18458494650045       -3.23632906407663
