88
 energy: -17.840506687235 gnorm: 0.000804940320 xtb: 6.5.0 (97a52f5)
C            1.98111286260731        2.56858730416167       -0.24639656143741
C            3.15830343228377        3.50074797383591       -0.48267443873341
C            4.10261493401048        3.56985856803394        0.71687663194389
C            5.25385298514143        4.54527182559978        0.51933206721504
N            6.14032155473767        4.60902470576535        1.69422765930198
C            7.46119780120504        4.14078825461862        1.65650902226872
C            8.33705474579893        3.91638760024509        0.58753953517342
C            9.59151929598839        3.43431659386840        0.84819236568156
C           10.02593639713825        3.14852354232622        2.16406835143064
C           11.39398874614013        2.64363100092854        2.40965497346202
C           11.62997517398526        1.64794548902997        3.38729104164703
C           12.88424095579634        1.18307578484399        3.63324546302160
C           13.99524486470152        1.68563842035026        2.91663657399370
C           15.31183597763846        1.23170851319145        3.15139399312307
C           16.35919060622884        1.74244363013374        2.44335936114040
C           16.14569458076825        2.72655411774463        1.46988864180874
C           14.88842457768120        3.18687479716845        1.21730004435153
C           13.77863278468687        2.68001130354823        1.93283431836196
C           12.46575856384606        3.13870391930755        1.70095302620173
C            9.15333807987922        3.35698112085388        3.22117050640664
C            7.87627719315582        3.85667263726723        2.96934828205345
C            6.77298962735855        4.15609292439565        3.83811497428705
C            6.62649855159959        3.94030661079607        5.22638100630721
C            5.44005017601467        4.23770420544937        5.82975775162583
C            4.39048399982425        4.79145678192210        5.06331098602696
C            3.10335112111155        5.27517258112882        5.47645210351282
C            2.46177435976467        5.27943798037303        6.71449711364975
C            1.21259606029506        5.86870758104247        6.83525275394761
C            0.51276247489447        5.88372683867177        8.13786647566412
C           -0.89017650268173        5.70985105570206        8.20569887107656
C           -1.54677969802079        5.72000194288695        9.39686579072497
C           -0.84279007348699        5.90564697480470       10.60925788614260
C           -1.49208546749507        5.92247122987472       11.86340318552190
C           -0.77995793782730        6.10411416073246       13.01162054854110
C            0.60910684505423        6.27701768395988       12.96581843214113
C            1.26759416769545        6.26579038264080       11.77296563230421
C            0.56102446554717        6.07932536511626       10.56205591642460
C            1.21110068462803        6.06328389960551        9.31094037151496
C            0.62102793091962        6.46184531414578        5.69509561095621
C            1.24395665820138        6.47059401353727        4.47611069589969
C            2.50169798066828        5.86818190572385        4.35260880932141
N            3.37522687176307        5.75520215843678        3.26167028206095
C            3.29971999470135        6.66300485574933        2.10383853476845
C            4.49923211817216        7.59603770730016        2.02411650795942
C            4.45380405267970        8.53685288116981        0.82075650492802
C            5.68509091640037        9.42318039548218        0.72616437333142
C            4.51811098649401        5.05029615916393        3.68594029409017
C            5.73275802477613        4.66842020378229        3.04076543860624
H            1.31197968739302        2.52425261660715       -1.10878375871536
H            1.38907890728721        2.89166566553550        0.61216673221100
H            2.31862343068784        1.55118702324066       -0.03929010333130
H            2.79767437216748        4.51049419996197       -0.72021313416784
H            3.72176834565990        3.18521551434300       -1.37109224987368
H            4.50527259750475        2.57314910257210        0.93408553727075
H            3.53839830857236        3.84302190848391        1.61567432027654
H            4.89863167691645        5.54982287373843        0.28592898670411
H            5.84554976464178        4.24313944834206       -0.34863495171474
H            8.02619895806465        4.13540351073237       -0.41813737830724
H           10.27064309076672        3.25286282091403        0.03321050542328
H           10.79153178069133        1.24844566500032        3.93139147471301
H           13.04660578701559        0.42384110059015        4.37880754371011
H           15.47689434230140        0.47620865868556        3.90026243705542
H           17.35978796445752        1.38911484146341        2.63229416726683
H           16.98402266293736        3.12073987888110        0.91885598961273
H           14.72477688476516        3.94407006309487        0.46983746161973
H           12.30529488271903        3.90668272250223        0.96636897983668
H            9.46081190017238        3.15719922921020        4.23075996431614
H            7.44521763028314        3.52442412174390        5.78661507702097
H            5.29865500045593        4.07957009465686        6.88429212905341
H            2.93191458751815        4.81640543320636        7.56195480767791
H           -1.43671246481976        5.55074460971165        7.29248169601568
H           -2.61376209867415        5.58323206913305        9.43107248516960
H           -2.55957987652101        5.78963053883612       11.89945068210605
H           -1.28647644346527        6.11532760125900       13.96302392991307
H            1.15805971324769        6.41973847683171       13.88215728713793
H            2.33517857233764        6.39850741339170       11.73815113052598
H            2.27502341031987        6.21114441511965        9.27668961207734
H           -0.34053183315529        6.93279077290695        5.80244059641429
H            0.77713488789201        6.92199727990551        3.61930784720859
H            2.38152898718195        7.25099620566291        2.17981286491497
H            3.18460168385192        6.07213079846024        1.19442203077736
H            5.42294384794118        7.00707556015883        1.99737396674695
H            4.56764363208376        8.17769478258779        2.95126004483498
H            3.54538792537767        9.15142401371402        0.87443425341787
H            4.34250060441340        7.94705120251870       -0.09881334670064
H            5.80126742755020       10.03432828401511        1.62341729175109
H            5.63963443972488       10.10043664335575       -0.12938824563225
H            6.59360051917545        8.82607194253990        0.62441362598300
