76
 energy: -15.053562521314 gnorm: 0.000667824354 xtb: 6.5.0 (97a52f5)
C            1.68539966187114       -1.87132271880784       -1.62994714985823
C            2.83940519151723       -2.85602319078445       -1.72487109631282
C            3.94183667377680       -2.37963304626354       -2.66964449157235
C            5.08289688181986       -3.37618254703842       -2.81321816788392
N            6.12311879333308       -2.90255574345455       -3.74294493319559
C            7.40752886884392       -2.55089162138218       -3.30616457151823
C            8.11631704535617       -2.88164353364459       -2.14525913803513
C            9.37376010269126       -2.37144069727744       -1.96867666192935
C            9.97490288803906       -1.51482420647559       -2.91978139199160
C           11.34008928009824       -0.99248359542351       -2.69730283044200
C           11.67513473991196        0.31553478239296       -3.04338327829603
C           12.95029465404175        0.79282764898775       -2.83489356173176
C           13.91355716344853       -0.02278579279923       -2.27914941453843
C           13.60765916346623       -1.32508886479437       -1.92723966751997
F           14.55511083203558       -2.13106094164434       -1.37990422518337
C           12.32838053598760       -1.79890643860845       -2.13773416852575
C            9.26830879819468       -1.17554225238847       -4.06205026121706
C            7.98837585649905       -1.69416740547418       -4.25735405725086
C            7.02536124689675       -1.50793212722197       -5.30491585559664
C            7.05994331976666       -0.65049765650569       -6.42788621901274
C            5.97687879931880       -0.58151402886858       -7.25241088936782
C            4.85210970305207       -1.39688294108168       -6.99231743509644
C            3.64907103262833       -1.57675204704640       -7.75360505540523
C            3.17785342073231       -0.96208526355248       -8.91342344920113
C            1.97540203296675       -1.37438954162646       -9.46423476276404
C            1.45610444762953       -0.73618247507215      -10.69259899843601
C            0.09373312802439       -0.48958790692046      -10.85472622071842
C           -0.38105409113345        0.10598274824162      -12.00239393120814
C            0.49113274588675        0.46685237651946      -13.00785531106408
C            1.84798798992120        0.23450211653762      -12.87201956233629
F            2.70996168734554        0.59188392003979      -13.86001812934250
C            2.31911380370318       -0.36292357844324      -11.72026787129201
C            1.25602272010959       -2.41938954590617       -8.83948562470675
C            1.71047004642670       -3.03470327626173       -7.70470901840013
C            2.92095184771422       -2.61229434345204       -7.14252088024249
N            3.63456101296755       -3.06467372435194       -6.02408166861583
C            3.42733250866616       -4.40940757503581       -5.45861143881322
C            4.62853437488849       -5.31701622151782       -5.67929117962742
C            4.44764006626454       -6.71373499992820       -5.08650902114085
C            5.67307611405079       -7.59243149769887       -5.27742981746451
C            4.80227697830785       -2.28658763467643       -5.90364591150440
C            5.90398441648070       -2.29945649841234       -4.99631971879294
H            0.90428216639806       -2.21752392105253       -0.94967409873609
H            1.22356172379849       -1.71076086294595       -2.60595517252485
H            2.02621508746870       -0.89830591320745       -1.27161692009160
H            2.47212367460243       -3.83537789283067       -2.05865133072360
H            3.26703259945914       -3.03820192352637       -0.73012918695886
H            4.34165147311737       -1.41933245757178       -2.32295559366843
H            3.51556721025852       -2.16348717612646       -3.65551728677985
H            4.72930375091346       -4.35381222026220       -3.14222660244963
H            5.54112964322776       -3.55264495095148       -1.83694089829745
H            7.67818775047268       -3.53771473622534       -1.41504897008693
H            9.92463940199513       -2.61402904798601       -1.07660547727271
H           10.92083303345610        0.95738052585787       -3.46429262154799
H           13.19635707095724        1.80682440623193       -3.10450845067012
H           14.91329831810489        0.33593740087674       -2.10957212215106
H           12.10899543956272       -2.81713703300903       -1.87600479095410
H            9.70474599300066       -0.53289430855802       -4.80360019522825
H            7.93266704218963       -0.04788548647223       -6.60662369099118
H            5.97424215004285        0.06477359581436       -8.11205784135689
H            3.74120378322363       -0.16676736372440       -9.36459111698020
H           -0.58648883710939       -0.75648793499599      -10.06474071699237
H           -1.43646145377483        0.29282853219022      -12.11493176845365
H            0.13544839916072        0.93308498442301      -13.90951034274735
H            3.37280815642979       -0.55219732373180      -11.63474945500741
H            0.33257443247262       -2.74468845237884       -9.28605529026015
H            1.14740037256694       -3.82406813838922       -7.24057695923993
H            2.54232618444526       -4.85157534918290       -5.92283236306500
H            3.17702359389835       -4.31686468305793       -4.40133962304339
H            5.52545270497248       -4.85024323879597       -5.25743201905409
H            4.83310870333573       -5.39115481260333       -6.75388570160140
H            3.56593839961239       -7.18786311483630       -5.53732265236948
H            4.20811263717929       -6.62775934433532       -4.01858351592611
H            5.91234782025069       -7.71050861361427       -6.33569654267057
H            5.53172707757211       -8.59112348247753       -4.85888988870128
H            6.55013801323136       -7.15538777544439       -4.79667375621761
