76
 energy: -8.515780882194 gnorm: 0.005115633663 xtb: 6.5.0 (97a52f5)
C            2.90450426578798       -0.51691147112163        1.14365983328425
C            2.64193197561990       -1.20067157293346        2.39875948188390
C            3.06962635356969       -2.56313050258782        2.48072852495387
C            4.42411362248513       -2.80167616480032        2.23279307508009
N            5.30186802091628       -2.02146986496187        2.92896251701598
C            6.58693247420315       -2.24518551527581        2.81174880289644
C            7.56719956991867       -1.60535721174912        3.44865204737777
C            8.86471515078730       -1.74328509493768        3.33586481885070
C            9.64319695188043       -2.53798148380858        2.59128907005671
C            9.40256081003491       -3.61461934996225        1.68532487769931
C           10.41744224730402       -4.11762686256156        0.92052427146452
C           11.69419685186575       -3.82232428865941        0.72437316900556
C           12.58444398572910       -2.98143051750081        1.23460905750254
C           12.59516749503384       -2.26579926584294        2.33438617898957
C           12.14727409453861       -2.70285238047159        3.50936816672216
C            8.15108300918271       -4.09414399971876        1.48226380747010
C            7.31620019640061       -4.83565327428386       -3.38368787331062
C            6.23702420919723       -5.43732432660724       -2.92414176379470
C            5.95299430259349       -6.75796019243486       -3.01204640035090
C            4.81758773645492       -7.39765702547360       -2.58296419914314
C            3.78953669996246       -6.77796379850402       -2.00930260213373
C            2.65700613393289       -7.33383085308277       -1.55184246557076
C            2.30470649948826       -8.64017606587930       -1.62368305175683
C            1.24403922708133       -9.20764763211313       -1.05916961660904
C            0.90292024729987      -10.47171133179101       -1.16287780725867
C           -0.17083496941753      -11.07953278946399       -0.55628777463617
C           -0.70550469989769      -12.31864394746538       -0.67501722403569
C           -0.30572347705783      -13.38831616943270       -1.46185401979824
C            0.78337719344059      -13.50805978685881       -2.31023417265993
C            1.70322538956670      -12.61001599159602       -2.51769500223354
C            2.78781505141164       -9.74221085016099        1.87246611392846
C            0.97227832288252       -8.48844091638637        5.22865446265572
C            4.04384465132891       -6.05067687702748        4.92207951019717
N            5.02634309403357       -6.06286702430791        5.67812452726644
C            6.28949827168011       -6.07420701091362        5.32726694193616
C            7.27258289897072       -6.03391019320584        6.20116118324593
C            8.55865017173818       -5.97753597522154        5.76493640691537
C            8.87488265366342       -4.76547493194837        5.12501536877599
C            4.09062538068709       -6.14017699806409        1.48189047195985
C            5.26886900041429       -6.41696415009530        0.97218536188727
H            1.29343938389770        1.49794897541539       -1.01198410227379
H           -0.62537231132450       -0.21484672955891        3.10607365294077
H            2.39527746883385       -0.96233446161523        0.31400670582403
H            1.83412163819543        3.02603129886492        1.14269830884854
H            3.95285042659104       -0.45476013513332        0.92664596929042
H            2.03463230453662       -7.99282460384518        1.62733320814543
H            1.62552242066945       -1.07503001019389        2.73729642681159
H            5.77236110393406        0.34178491632766        2.95685160149611
H            3.64342331665402       -4.00475457358453       -1.59852015060617
H            7.03963054121502       -0.87812191321879        6.10100332086414
H           11.52132569309513       -0.77572445794648        4.17370818431115
H            9.74730943130250       -4.14013880994350       -1.48939991451876
H           14.46616380628506       -4.23712425679675       -0.77070765945056
H           15.61807742853686       -1.64926258895963        2.46522539204650
H           13.66291240763371       -2.52105831167603        5.00662684735298
H           10.79934883285775       -2.82841270656921        5.59866014267343
H            7.93324990452367       -4.85537161889809        0.79265762748324
H            8.08207961573619       -5.34423999143559       -3.89035420678493
H            4.76537991459053       -8.46480492921794       -2.71429037969370
H           -0.65948943546101      -11.04869862381092       -3.67334457667926
H           -0.13637012245327       -8.58204625243537        2.48489590766383
H           -1.58264011797010      -12.48181594149252       -0.06725978337958
H           -0.93644045206138      -14.26392845961206       -1.40235614826191
H            0.89694798254085      -14.43725753932840       -2.84586782199238
H            3.83650228644994      -10.03661249126777        0.27369646372484
H            1.53146657199589      -11.14753850760368        1.48354114983875
H            2.36852771290081      -10.93698268886444        4.41855501161698
H            4.24648973773109       -8.91280544317776        2.83368148468400
H            1.16309026190234       -5.66963772189482        5.41078493555955
H            8.61110719881128       -3.92286851304364        5.73254416494993
H            8.37665347038823       -4.67638637298554        4.18029860304054
H            7.34966573868978       -7.70378793139403        7.07095819344813
H            6.97818775533381       -5.42024617489078        7.85220441740787
H           11.59438611906480       -4.58821972516277        3.64127393386564
H           10.53825822877734       -6.15314182100065        8.05542503173554
H            8.17070266512710       -2.44590722747660        8.01744397593513
