16
 energy: -2.534898876235 gnorm: 0.000319169622 xtb: 6.5.0 (97a52f5)
C            0.33195223241824       -1.38033955136554        0.04384496159074
C            1.32424279286174       -0.50573899165322       -0.04269152452061
C            1.11953499346816        0.97565104174838       -0.11174307742897
C           -0.29817128618684        1.40278494485605        0.31355042362085
C           -1.36185230387474        0.47400777422445       -0.29223660987123
C           -1.11361148481511       -0.99375851579584        0.10576779734146
H            0.56720576132406       -2.43332692989363        0.07362927708304
H            2.33988066563472       -0.87019602654910       -0.06618711457713
H            1.30517083883983        1.31334554089790       -1.13978529697852
H            1.87255235978946        1.48490771377035        0.50584567588883
H           -0.49116502580015        2.44821323377505        0.03333521619815
H           -0.37436025711681        1.37492649179299        1.40798953199866
H           -1.33994775184793        0.56418434725405       -1.38576170127322
H           -2.37029928675089        0.79349394410209        0.00715594153104
H           -1.70444388160835       -1.66563514614479       -0.53252146000368
H           -1.48286836633538       -1.15860987101918        1.12647795940060
