60
 energy: -12.763374086916 gnorm: 0.000880490768 xtb: 6.5.0 (97a52f5)
C            1.21049866599436       -0.76844761765498        0.31029760091792
C            2.63847208760186       -0.33184019392091        0.02297690158366
C            3.09753499695892        0.81534363297766        0.92260965144923
C            4.51909493079767        1.26930557716371        0.63298317398683
N            4.93020811948935        2.36704237376085        1.51600569342444
C            5.52591375562021        2.21588227825117        2.77640183711278
C            5.95399616226096        1.07967518426216        3.46705951159415
C            6.50910806224778        1.23629167395105        4.71266849994094
C            6.64632804541031        2.50361289222651        5.28905633375054
C            6.22703544575999        3.63150174751181        4.62627601071620
C            5.66063018015339        3.49046924815444        3.35817171160604
C            5.11587988562739        4.44667003074183        2.42352446009481
C            4.97621428486728        5.83249443747354        2.47429524267220
C            4.38397448957338        6.49413005213229        1.41157163579310
C            4.22099386970550        7.89129191989727        1.44620470705818
C            4.04644450728575        9.10142294585532        1.47661500632962
C            3.78284713093119       10.48080070448174        1.50340301021100
C            4.83081406980705       11.38760498705179        1.64785792346354
C            4.61209272917727       12.74544190427954        1.67712522819656
C            3.32037654631772       13.26523941001495        1.56164114144668
C            3.05877699815060       14.66990940046096        1.58684926951619
C            1.80041636881356       15.15164434740988        1.47191765704105
C            0.68252182077114       14.27316088705830        1.32013930522415
C           -0.62587498259379       14.74466198589428        1.19668770172716
C           -1.68112143008287       13.86810985486114        1.04995522911551
C           -1.46731013904806       12.50550336606681        1.02230603640964
C           -0.17843485123495       11.98228036351817        1.14191974159934
C            0.08196922518771       10.57714429982107        1.11782913421361
C            1.34028559481721       10.09688118261234        1.23369898793904
C            2.46345460613459       10.96879580628119        1.38476385325376
C            2.23648438311232       12.36724812976660        1.41389204559295
C            0.91013478064793       12.87539579002205        1.29218337901290
C            3.93157389499763        5.75482933632302        0.29764011580853
C            4.06348729546334        4.39225945616389        0.23257204045158
C            4.66456672458293        3.72379668106649        1.30267349320867
H            0.89478625034476       -1.59114295912738       -0.33520772897853
H            0.50827510074405        0.05435685659331        0.16059618477489
H            1.09975107833029       -1.10136839580219        1.34434547230376
H            2.73747307533730       -0.02958088944127       -1.02842194392206
H            3.32546966111927       -1.18100247235148        0.14002778956563
H            3.01827932028611        0.51898340980059        1.97552662111758
H            2.41546699623231        1.66764664963754        0.81725808996661
H            4.61660614141443        1.60111944102090       -0.40465090537496
H            5.22316625078446        0.44099505911365        0.75258507633132
H            5.84358520244193        0.10701150055358        3.02193964899392
H            6.84475522980679        0.36895853856908        5.25727447764842
H            7.08595140933065        2.59512207572909        6.26874761747788
H            6.32502884350505        4.60925981316100        5.06408313348008
H            5.31983252199815        6.38034929963196        3.33248716909820
H            5.83304299726008       11.00413488020398        1.73725449060114
H            5.43975269719776       13.42435501275790        1.78973286764182
H            3.88904564981475       15.34549373224339        1.69974366020989
H            1.62153134078341       16.21276055606248        1.49284735474864
H           -0.80324441968120       15.80617708506855        1.21685219337562
H           -2.68372971967781       14.25228644340357        0.95568151741695
H           -2.29710678960834       11.82957414969252        0.90735623993695
H           -0.74823756511939        9.90147398525887        1.00535466624131
H            1.51561883036079        9.03550003253708        1.21322900129537
H            3.47008034156829        6.28830469894292       -0.51574364304000
H            3.71348130012230        3.83596742077058       -0.61855232239588
