60
 energy: -11.732665371263 gnorm: 0.005384749731 xtb: 6.5.0 (97a52f5)
C            2.07750541166655       -1.69329981409717        0.39346840359835
C            3.44866009982772       -1.03536938266113        0.39794201452842
C            3.56137404207171        0.09058132322506        1.42571259861024
C            4.92502853253431        0.76364965168747        1.42933101228681
N            4.99621893084901        1.84933211952895        2.41816771180405
C            4.60175531221633        3.16347013877297        2.16679840012586
C            4.14061466391286        3.78576936387535        1.00441754362666
C            3.82103909457719        5.11901274447585        1.05456607643711
C            3.95049483690718        5.84544615688800        2.24210115828469
C            4.39700513671834        5.24433317668618        3.39387421977156
C            4.72619806280914        3.88583697865125        3.36298379890071
C            5.20618829473362        2.98322098941998        4.39063594108341
C            5.43545093255272        3.38348274686927        5.71537715313600
C            5.91909752078345        2.65402949753262        6.73227944105421
C            6.38134747139226        1.39389322844484        6.96355260346505
C            6.81560694973257        0.27095796821975        7.17589580234112
C            7.31518767125344       -0.98067096986419        7.39225500121347
C            7.83248755723260       -2.18477804560604        7.62356563404615
C            7.35212053803873       -3.36961709565085        7.20907761914004
C            7.92335535122543       -4.63620039298976        7.43826651349548
C            7.25740601455417       -5.77529153252103        6.87853628732433
C            7.72588041500692       -7.03329738783269        7.02893268977693
C            8.92085907974494       -7.29025267299747        7.76314669497096
C            9.42525604897958       -8.58108268311742        7.93323389050741
C           10.58320008947878       -8.79775189064030        8.65006929896730
C           11.26798026619334       -7.74231760319138        9.21386484256512
C           10.80524751083619       -6.43297804396338        9.07158730687295
C           11.49329691563870       -5.31848454026195        9.64339813668694
C           11.01110577122368       -4.06646517275280        9.48322918856792
C            9.84942997303071       -3.85474540415152        8.76513191153872
C            9.12124960800208       -4.86177384016953        8.18012444378216
C            9.61376265881113       -6.19747542805837        8.33670325585478
C            8.23040632203140       -7.52663035502782       11.48975042249213
C            5.72235335525716        0.54367036399481        4.34279673254957
C            5.35004895384075        1.71190402637827        3.76666324172934
H            2.01140575469857       -2.49933416963612       -0.34060048320412
H            1.29388418122185       -0.97008807780145        0.15972070830662
H            1.84077777505024       -2.11972834801154        1.36993298324970
H            3.67956033695919       -0.63870237152764       -0.59950582547095
H            4.22706757699926       -1.78467520773521        0.59473417778375
H            3.34461982802257       -0.29706780917561        2.42815152345021
H            2.78669055027346        0.84424996902483        1.23953506838079
H            5.15457803689708        1.17672630402420        0.44313679104393
H            5.71705797947809        0.04026220532882        1.64060674632538
H            4.04029930972217        3.22041365680540        0.09514237756882
H            3.46772194440935        5.61580868663594        0.16579122746216
H            3.69493464719604        6.89235663119927        2.25310051962873
H            4.49474660886997        5.80230100755481        4.30812340455609
H            5.19565143967686        4.40708227215819        5.94629721432092
H            7.88303675094999        5.02678613324737        7.03296044229763
H            6.43882786937524       -3.34573251569152        6.63983971118883
H            6.35424507614923       -5.60946011662788        6.31604222290444
H            7.19901153933372       -7.86464697465417        6.59306399655203
H            8.89530846538709       -9.41056241068831        7.49772401896968
H           10.95483339688932       -9.80192129782960        8.77310521813800
H           12.16943180866608       -7.91921291180871        9.77489795906432
H           12.39688466196213       -5.49064719838728       10.20203645203176
H           11.52024717193358       -3.21860941510232        9.90881321040721
H           10.59272031619980       -1.91630855896199        6.76531189712023
H            5.78685758318952       -0.36552769986174        3.82547144455248
