69
 energy: -13.324458189280 gnorm: 0.000745150481 xtb: 6.5.0 (97a52f5)
C            1.65292989767747        2.40700751011450        1.83206732523173
C            3.01111989287462        3.06718440408694        2.00467896344274
C            3.99259214797347        2.19714117956654        2.78840165749664
C            5.34456973033510        2.86107096285094        3.00639555202164
N            6.26748583659654        2.00572825248384        3.77301692492777
C            7.39881943155408        1.42056082427283        3.18255141056636
C            8.11799981483148        1.75233730878442        2.02880803703349
C            9.18013647804250        0.96687101278842        1.66135278449634
C            9.54520423295556       -0.15490759217550        2.41439212304799
C            8.84915451898354       -0.50219822332765        3.54335526505248
C            7.76672811910922        0.29221711376715        3.93532382980904
C            6.82724345700610        0.17542209721878        5.01236606643432
C            6.66599404667596       -0.85537715001003        5.96656850256307
C            5.62132141560802       -0.80332133549879        6.83933580100166
C            4.73826073383988        0.29981010401331        6.80174924907522
C            3.62472210100628        0.61767676655102        7.64862130263469
C            3.01744665833697       -0.07960854908435        8.69269943230210
C            1.94872916935784        0.49184531109835        9.36392302959442
C            1.27375193604318       -0.23867800805886       10.45778023955863
C           -0.11256249250211       -0.19615992463401       10.59713769161149
C           -0.73986551761092       -0.88785743659090       11.60829544882031
C           -0.00257245699794       -1.63978456840857       12.49943549152325
C           -0.69790979041868       -2.38597188984842       13.62770467610475
F           -0.78084544564899       -1.56093728090867       14.69459521139610
F           -1.93452360384821       -2.74579082377649       13.21736715440168
F            0.02774482447726       -3.48265389472658       13.93986970726128
C            1.37102568509565       -1.68561223633472       12.38030294271806
C            2.00474573385114       -0.99674073512770       11.37109280789891
C            1.50721254823462        1.78023858579283        8.98274388524795
C            2.09894784115264        2.47725253113533        7.96452658309283
C            3.16899360806409        1.89385462487199        7.27562724414224
N            3.95785287289550        2.36008621810160        6.21559605741961
C            4.05959186775325        3.79261235983280        5.88698731731252
C            5.44529164321283        4.35401290840726        6.16866069793636
C            5.57564605983928        5.83638192015406        5.82104775701745
C            6.97347363776865        6.37675022693984        6.07266640069334
C            4.89616070311586        1.36098021961405        5.89223721640990
C            5.94303941178767        1.26668611916240        4.92604197032853
H            0.96019555850969        3.03349339543347        1.26651639762179
H            1.19155892263608        2.19679790983242        2.79839310633772
H            1.74142143412278        1.45589908253367        1.30479555322042
H            2.89794004629145        4.03447550815646        2.51117313374289
H            3.44291328078850        3.30927128321587        1.02491415700449
H            4.13858133824281        1.24149963691533        2.27171812866178
H            3.55468418992591        1.92587115463336        3.75503449272574
H            5.24807578034075        3.82302327318055        3.51070216553011
H            5.80130995248366        3.08960548580988        2.04032919889376
H            7.84463974056253        2.61782853536179        1.45286761915655
H            9.74479612958613        1.21591964587172        0.77805159427222
H           10.38318663415980       -0.75457683688956        2.09947749466021
H            9.11762300576060       -1.36742717282189        4.12303824760432
H            7.35479909267482       -1.68123436667672        5.97455738451578
H            5.46911735318164       -1.57826330574834        7.56930970329724
H            3.36639103230687       -1.06046368893683        8.95642309086945
H           -0.69495707561180        0.37247143393899        9.89317882659107
H           -1.81090304998253       -0.85970230608492       11.71722954162492
H            1.93230575664872       -2.27088510318264       13.08899087238734
H            3.07721816780430       -1.02951372544632       11.28854472312561
H            0.68858942774536        2.22228423008720        9.52353513175839
H            1.74346616272344        3.45185214053417        7.68288846783705
H            3.31702431477967        4.33861603766503        6.47409979557805
H            3.76554595199474        3.94161714254071        4.84762814919780
H            6.19609917579836        3.77708964098588        5.61764148646264
H            5.69196709715027        4.19533803262212        7.22493729620265
H            4.83753476872594        6.40988976978888        6.39673492186657
H            5.29628493034274        5.98943253881402        4.77057033273971
H            7.25894582511841        6.25965785037945        7.11929492384761
H            7.05362198168143        7.43763735348436        5.82686690070659
H            7.71546632449097        5.84411651091380        5.47544340431760
