66
 energy: -12.885635680603 gnorm: 0.000489293442 xtb: 6.5.0 (97a52f5)
C            1.41354799135003       -0.28265491702431       -2.95765646727846
C            2.73124670212936       -0.76708742510113       -3.54025951129428
C            3.81269779816501        0.31213706373169       -3.52057026884857
C            5.12375123712069       -0.13661682022353       -4.14964788427032
N            6.13940035397336        0.93051336706530       -4.14127137111745
C            7.29190049935987        0.85552650054826       -3.34289677859371
C            7.94135727995169       -0.23567417936723       -2.75449400147866
C            9.04982079160303       -0.00749683738634       -1.97982619786694
C            9.53040661081536        1.29034397473687       -1.76833019204805
C            8.90597354453207        2.37348395906963       -2.33197717284888
C            7.77757260938332        2.15751868480274       -3.13043576020269
C            6.89244758779346        3.05796733894581       -3.81148947230714
C            6.85766102823827        4.47181415063678       -3.81219045141568
C            5.85140018551987        5.11767699408235       -4.46597401759616
C            4.88001391898762        4.36464984971210       -5.16489609728049
C            3.78415549560956        4.80312653425993       -5.98074299057160
C            3.28752478744167        6.07333418072543       -6.27355988413881
C            2.21153352101065        6.20296820701754       -7.13673835175011
C            1.66276541312155        7.53868965319946       -7.45467635112837
C            0.28909316850101        7.74059359944589       -7.58043485130014
C           -0.21356527063950        8.98893070532500       -7.87457791039164
C            0.64152613348934       10.05719921671871       -8.04825665679790
C            2.00895738205991        9.88481286102720       -7.92742649947456
F            2.85329495255518       10.93802808238202       -8.09019824455373
C            2.50787003166906        8.63166546769274       -7.63301789274177
C            1.64735837755373        5.04050933108149       -7.71190944011036
C            2.13034670492468        3.78934943686298       -7.43905485798296
C            3.21041789487239        3.65686472046765       -6.55818078262018
N            3.91513639302131        2.52896988343988       -6.11531082371736
C            3.91375684093245        1.26238389466664       -6.86860969996881
C            5.27781860777795        0.94247731564264       -7.46266000014088
C            5.30712164964944       -0.37905393819507       -8.22932927833188
C            6.68738275380545       -0.70765283562031       -8.77442348737278
C            4.91208349878459        2.95950197382535       -5.21810726015341
C            5.92086003354291        2.28163580481835       -4.46957110265389
H            0.64444880675392       -1.05776210809548       -2.97952006337613
H            1.03004445505568        0.57599104622717       -3.51192341667235
H            1.53336949948048        0.03300698972999       -1.91980704854296
H            2.58240794247251       -1.11397588307838       -4.57123426418820
H            3.08817326726945       -1.64959588445523       -2.99326862730344
H            3.99797714308879        0.63721860678122       -2.49000164333122
H            3.44695159279569        1.20880429787196       -4.03287830558898
H            4.98349521291485       -0.48665376449386       -5.17295932142853
H            5.51696416306469       -0.99853024600139       -3.60474452225210
H            7.57867744922355       -1.23373287187838       -2.92247568868852
H            9.56052424386540       -0.84005513969674       -1.52431941015162
H           10.40171810658506        1.43872920993285       -1.15178899111490
H            9.26411360645157        3.37463508128104       -2.16922535855572
H            7.61281146848830        5.01954708290168       -3.27691581893153
H            5.79599538609835        6.19180046630079       -4.47652643547158
H            3.73025623697001        6.93966480000801       -5.81852368978987
H           -0.37994168497177        6.91117267520308       -7.42982503944269
H           -1.27771986626153        9.13262108076491       -7.96687658153578
H            0.26356637051596       11.03790843427564       -8.27695104213261
H            3.57189974268199        8.50751319095783       -7.55691233944671
H            0.82312856909642        5.15432881327980       -8.39443433620314
H            1.68441333422279        2.91595041513050       -7.87966315084388
H            3.17252623827879        1.33262630827754       -7.66871819388230
H            3.55692498056658        0.46228536555239       -6.21906046541648
H            6.03112462325647        0.92426780065908       -6.66730563225619
H            5.58776923769434        1.76325233312826       -8.12037013928622
H            4.57459026459328       -0.34116434113783       -9.04632892231976
H            4.95838166502390       -1.18769158378311       -7.57363002991369
H            7.03884299208337        0.07061512362885       -9.45425297396937
H            6.69893126611065       -1.65249852379913       -9.32221085330117
H            7.42050717792154       -0.78564457452158       -7.96932568432383
