66
 energy: -8.673930342801 gnorm: 0.003826799791 xtb: 6.5.0 (97a52f5)
C            0.83851268164456        0.65249321896603        4.73329191402743
C            2.09989074423937       -0.12684754156069        4.40554145629256
C            3.34496240625663        0.75604410137016        4.29024846175355
C            4.58332763662245       -0.02504260419105        4.01032108629139
N            5.72329168318656        0.75285910792104        3.86714238443969
C            7.01908713648216        0.33099960382960        3.87837259366236
C            8.03329727990275        1.10138418467025        3.36833436875869
C            9.27170363979344        0.67500010700078        3.36703397836354
C            9.59777057320545       -0.51809326961380        3.86591565695160
C            8.69160683490987       -1.30828969235733        4.38738261473149
C            7.37102315553724       -0.93756559351477        4.43280527019904
C            6.37921240030062       -1.71129877803257        5.04775077113573
C            6.54254361397140       -2.93559098682425        5.57124896943198
C            5.68101282632649       -3.66844597580853        6.22072869450937
C            4.39154038399031       -3.37531589041132        6.63361759146241
C            3.57685788324091       -4.34161491216805        7.24731176204081
C            2.33871426516092       -4.19078320353315        7.70808758908000
C            1.58874268842935       -5.12007811424519        8.25219755792796
C            0.26183920508407       -4.97475583557660        8.74912498214452
C           -0.42319890653279       -6.05817263662732        9.31261770166141
C           -0.00549059479232       -7.32732350374251        9.53763582185491
C            1.05993222420742       -8.07613802410192        9.28515138078996
C            2.07242669234842       -7.93311448823006        8.46084567794544
C            1.93498072036526       -7.59972231558687        7.17850938798601
C           -0.29558158151248       -3.77061820389363        8.77077557269175
C            1.88082758084656        3.75667707655488        4.68544678332746
C            2.92908655992019        4.31099830980050        5.15433355820063
N            3.80771635200460        3.83938136234726        6.00177559955731
C            3.83854344941062        2.71935329606887        6.55039829984082
C            4.82328948468716        2.36541568239899        7.50286807951394
C            5.69426666343267        1.22364362630453        7.00530661522937
C            6.77882519046345        0.84560843347570        7.94418432775825
C            0.08579193309880       -3.15354244007781        4.99222599006634
C            3.81707540404499       -2.19083667223395        6.51349328297441
H            1.26789672402187        1.28570211852515        1.48780696176393
H            0.93976727079102        1.18744270603012        5.67819333463127
H           -0.03395125679621        0.00057711123695        4.81569396257951
H            0.62319245163711        1.39610101593215        3.96413223782924
H            1.96463240812649       -0.68147959932845        3.46805263935879
H            2.27312678930125       -0.89727856437210        5.16599821612935
H            3.49162861984104        1.33627257458728        5.21024860427032
H            3.20080648985896        1.50329559591161        3.50156374318967
H            4.47903811709071       -0.68915534254009        3.17131570476615
H            8.72665885233487        3.72011086916446        2.09346657577480
H            9.51345137342729        6.65630967798122        1.06662328477916
H           16.01865594631916       -0.43998945767360        1.39152639726396
H           13.39426618352024       -5.12117734245451        3.05527298578194
H            8.50011262516783       -5.02322844253089        6.15641892538781
H            1.86226742531391       -9.35539657948218        6.17486022482230
H            0.47601227979919       -6.62226879849472        6.28208304933807
H           -1.16991017793242       -0.87887667261496        8.58228507957828
H           -1.41333568834468       -5.83260925913002        9.67436675676007
H           -2.11465010486305       -8.91156743883373       11.20596315235655
H            4.90833284599028      -13.25495037741861        5.77162672251045
H            3.57260880533662       -6.89558595567342        6.30990845536050
H            2.41914893956948       -2.75727068956056       10.12738791447899
H            2.44968440184474        1.62082490490788        7.37483091330014
H            4.32028373296294        2.09744033261325        8.43753125504463
H            5.43144744735131        3.24849225345814        7.72569471546140
H            6.11789503140239        1.50299297030343        6.03273613118127
H            5.06223907636801        0.35330479347389        6.79115364258505
H            6.40867847247102        0.49537833097992        8.88838125402904
H            7.47802882417591        1.64066262728232        8.11674588532969
H            8.50757368062887       -1.59327443794568        7.27102226387465
H           10.08151812341643        3.60578133420782        9.22573229668313
H            5.67433600533451        3.01968225139466        3.82289094270115
