12
 energy: -1.664644869942 gnorm: 0.000906164236 xtb: 6.5.0 (97a52f5)
C            0.91086375589376        0.02968125850087        0.04951545940396
C            2.42973931655152        0.00596568231999        0.07493382107527
C            2.98747085153292       -0.44145439385059        1.42078718397494
O            4.39819369511117       -0.43795279192862        1.46866826204735
H            0.52095447079354        0.35496339541858       -0.91737592624522
H            0.51360355110750        0.70688396258415        0.80783990288860
H            0.49677867532107       -0.95940587928387        0.25405960639808
H            2.83311849065645        0.99796295023753       -0.16336067370192
H            2.81473941353283       -0.65424658488334       -0.71208938550197
H            2.62648455189911       -1.44391863698212        1.68310847026064
H            2.64015007610309        0.22361095327641        2.22050285556315
H            4.76449315149704       -1.01016991540899        0.75653042383712
