28
 energy: -4.233429414476 gnorm: 0.000230917921 xtb: 6.5.0 (97a52f5)
C           -2.55302913643075        0.72478693325195        0.26024555056288
C           -2.55295625934521       -0.72471045739792       -0.26019823785846
C           -1.28484507728456       -1.47193906785988        0.19064038400448
C            0.00007978542267       -0.73599616683556       -0.26127108906245
C            1.28504309584569       -1.47210577042498        0.19030685288228
C            2.55324644021387       -0.72482048155468       -0.26023233514099
C            2.55319452953271        0.72472010797968        0.26010372988984
C            1.28505286001652        1.47193234431317       -0.19068228810300
C            0.00014460535941        0.73601189975208        0.26131394920292
C           -1.28483427527519        1.47212041374130       -0.19023398329771
H           -2.59988800728979        0.71727804311281        1.35663171816577
H           -3.45708550172947        1.25780019322396       -0.06745386151666
H           -2.59948517813605       -0.71716908915206       -1.35659687211197
H           -3.45704113439515       -1.25780777505876        0.06726815291203
H           -1.27975037150557       -2.50528560516963       -0.18080663873845
H           -1.27582311101190       -1.55510748400218        1.28358935422496
H           -0.00007082344023       -0.68410146188451       -1.36109852155720
H            1.27985804298679       -2.50528864474976       -0.18161184291486
H            1.27604961932237       -1.55584737260051        1.28321359270738
H            2.60012842561499       -0.71742229802655       -1.35661710397368
H            3.45728864427569       -1.25779301997782        0.06756939531148
H            3.45724992540981        1.25779358277663       -0.06748659401207
H            2.59982424113505        0.71727063464507        1.35649870398346
H            1.27597425065916        1.55508199321031       -1.28363219571699
H            1.27997678891516        2.50528587323483        0.18074674806352
H            0.00034854274362        0.68413489951845        1.36114126449984
H           -1.27583653855091        1.55598058038324       -1.28312991501406
H           -1.27966438305874        2.50525719555132        0.18182208260772
