21
 energy: -3.010636607135 gnorm: 0.000480954903 xtb: 6.5.0 (97a52f5)
C            0.98150340227768       -0.04372755520058        0.15908003007559
C            2.49939118569381       -0.01741786914418        0.09904714931101
C            3.02937250076020        0.54874479087751       -1.21126983074057
O            4.45333400845263        0.56517457422465       -1.24792945200524
C            4.96559719811957        1.09205585518975       -2.46829785483556
C            6.48802962309345        1.10133968284084       -2.49053791057608
C            7.05558757836809        1.66002244417684       -3.78439049965497
H            0.61545260008494       -0.45202501522699        1.10393486358070
H            0.56462113256217       -0.65326569565694       -0.64500424247859
H            0.56422176140925        0.95938125999684        0.05171053711686
H            2.90782324676260       -1.02604070707765        0.23977287098433
H            2.90741472451114        0.57170722690061        0.92994428413132
H            2.67140964924506        1.57310883244473       -1.36210625351733
H            2.67207216871937       -0.04396828429054       -2.06050210800298
H            4.57143433937763        2.10630313701909       -2.59524845531412
H            4.57112621754362        0.48919767603028       -3.29360176819965
H            6.85078512780268        0.07987227633870       -2.32037066790925
H            6.85111087603207        1.67766074972863       -1.63032501438472
H            6.72640742517606        1.07519575073249       -4.64546809301906
H            8.14804318583329        1.66073370070600       -3.78647171858521
H            6.72665204817470        2.68792716938994       -3.94901586597648
