35
 energy: -5.036270369369 gnorm: 0.000899641841 xtb: 6.5.0 (97a52f5)
C            0.84466420100080       -0.87942913939080        0.48227373005167
C            2.35115118946501       -0.91618971425352        0.29825201225218
C            2.76433298415372       -1.36334068969385       -1.10454909572092
O            4.16195321428876       -1.40586576274527       -1.25377079543033
P            4.50121386988930       -1.87479904271289       -2.76025628179604
O            3.85089179358371       -3.22822209986802       -3.05036520934406
O            3.93812837711599       -0.70312274136913       -3.71402972716117
C            4.69398045966456        0.46098295872813       -3.49378150393574
C            4.23223384811799        1.61809460276010       -4.38038076076739
C            5.02428090679182        2.89099144650161       -4.14331031444140
O            6.11970424204948       -1.94740283940892       -2.94783889442293
C            6.61452389624373       -3.22464646404920       -2.62492618666973
C            6.45788614759132       -4.23101181755295       -3.76733617949904
C            7.01523725108321       -5.60075036329073       -3.42765731751096
H            0.56228692934907       -0.55675690218749        1.48635272499919
H            0.40387742957380       -1.86386337454249        0.31659323603134
H            0.37764823372412       -0.19418084376335       -0.22704093432335
H            2.81416432303363       -1.58766956439525        1.03132150597110
H            2.78922146893934        0.06933050339887        0.49706223183747
H            2.35940488280876       -0.68242374508114       -1.87297861622268
H            2.37753544523406       -2.37314018738471       -1.32896002784817
H            5.75268207391856        0.21573193493892       -3.68711905636163
H            4.61109089947321        0.72271765937594       -2.42511618836313
H            3.16327865559838        1.78937445120840       -4.20654906754615
H            4.30431674952047        1.30708747682523       -5.42944662803057
H            4.93141609755930        3.22602994554841       -3.10852265404730
H            4.68864869914686        3.70763928542065       -4.78588648840914
H            6.08723948012856        2.73539972752050       -4.33695741521053
H            6.09639518842493       -3.56932016443319       -1.71464136394390
H            7.67753939682226       -3.10373852388107       -2.36070597446833
H            6.94320951326134       -3.82630920814069       -4.66331061656723
H            5.39386796413010       -4.30209587831692       -4.02497696374186
H            8.08135698835713       -5.54786310951751       -3.20367707544118
H            6.88547560387809       -6.31021840106858       -4.24715339375775
H            6.52070159608250       -6.01896941517727       -2.55009071015936
