77
 energy: -16.576125422274 gnorm: 0.000493493308 xtb: 6.5.0 (97a52f5)
C            0.29344882804592       -1.93055589305983        0.38686092492043
C            1.75702055241716       -1.52529132179399        0.35225472311101
C            2.47967165616624       -1.79377824905316        1.67586810163760
C            3.89120780073802       -1.27944334199208        1.70011449636893
C            4.18774260330746       -0.10093927491617        2.36826734879018
C            3.12755686313375        0.70923539589317        3.03488574557672
O            3.20131318201960        0.95204602678878        4.22402166081192
C            1.97321029155126        1.21960995098860        2.24998927873596
C            0.72702777453214        1.10243553917764        2.80287649513370
C           -0.41242542377960        1.49235243453338        2.10593196633302
C           -0.33636627327419        2.04415203763103        0.85328160161923
C            0.94071420296839        2.23451539397037        0.25982237409207
C            1.07257880272561        2.82807405559806       -1.03588295368307
C            2.33175256339970        2.93823965120374       -1.58624309328984
C            3.46901654023648        2.52267831973996       -0.89915952073700
C            3.36145542745842        1.98822113269374        0.34590083614179
C            2.10407919623535        1.81533327330564        0.95743487891885
C           -0.11590834239148        3.36504299667426       -1.72361788607074
C           -0.00452366194468        4.10389169073930       -2.90410751707573
C           -1.10846363074407        4.65706016610179       -3.51206699152083
C           -2.35288859254435        4.50668253123849       -2.94798478535684
C           -2.50667020534103        3.78632231704135       -1.76810136538997
C           -1.38881483856843        3.19330719408691       -1.16430935756281
C           -1.60680154416926        2.34041793313594        0.07399606432525
C           -2.74252338381565        2.94228101503905        0.95097691409083
C           -3.93958035818374        3.30287560257643        0.13746848489583
C           -3.81558664378552        3.68750971706026       -1.12867756602972
C            5.52650862564326        0.38174222876932        2.42259291470864
C            5.84936167588787        1.56465130589316        3.14044630644374
C            7.10447658072656        2.06619755979310        3.14879800979443
C            8.15457471825717        1.41799776606854        2.43879180867192
C            9.45689190279541        1.93140829706747        2.42860585568617
C           10.45243412016709        1.28759179609678        1.74123092326623
C           10.18768664627097        0.11696122523442        1.05013162365316
C            8.91480198625562       -0.44086457100193        1.02815694915225
C            8.60983303961167       -1.67926670673308        0.31313400656548
C            9.57766929004035       -2.39488207491070       -0.38257301093130
C            9.26918343258398       -3.56772087697821       -1.05024469246796
C            7.98916789326009       -4.05814112847924       -1.04097545017664
C            6.97441620282976       -3.38013003257281       -0.35650750683733
C            5.63873163296581       -3.87236648528066       -0.32926754845378
C            4.66248303846541       -3.21000076878422        0.32918746489098
C            4.92089767215041       -1.99033200590311        1.02470840678436
C            6.24034463610169       -1.48883478812979        1.02653847891283
C            7.28010161963685       -2.18066603398241        0.32736520224570
C            6.54365303547114       -0.29541020844782        1.73086951196173
C            7.87665638869572        0.22406883000725        1.73213143004698
H           -0.21176567973425       -1.72469116410558       -0.55933914707968
H           -0.24531333822016       -1.39237358942014        1.16880208252969
H            0.18377543135848       -2.99629830397880        0.59475962618709
H            1.84456192281031       -0.46138049804437        0.10267328014276
H            2.27651331285832       -2.04077434903273       -0.46516743727176
H            2.47261922754549       -2.86521290839055        1.90291821089364
H            1.91712619436456       -1.34147468648314        2.49935481041458
H            0.64096350911680        0.67578638434533        3.78778573146832
H           -1.37520277404204        1.32332544038523        2.55415942801280
H            2.45608538914738        3.36105202600420       -2.56596542434452
H            4.43984356900270        2.63499323451882       -1.35400378571831
H            4.24763442868720        1.69018748041776        0.87334312391696
H            0.96026566594486        4.26462219590601       -3.34872344287288
H           -0.99592041616899        5.22241107608399       -4.42286437508645
H           -3.21624025878908        4.95813271213287       -3.40593206176524
H           -1.96899721639255        1.36666102472032       -0.29478331614132
H           -2.35811564118079        3.83624327447250        1.45429597013952
H           -3.02768994043739        2.24463996121840        1.74706438740342
H           -4.91634559701163        3.25103612132138        0.59070712400177
H           -4.68375433203511        3.96067444285988       -1.70322072755742
H            5.06859327931631        2.04559112081142        3.70376516408046
H            7.32784306087025        2.96254984821583        3.70112424436449
H            9.66687904938152        2.83973953040118        2.96678964102433
H           11.45039858336266        1.69491297862437        1.73929320293465
H           10.99095702287398       -0.36216515345286        0.52114225977236
H           10.59134492959484       -2.03923800957659       -0.40641313205096
H           10.04224009122036       -4.09983830274042       -1.58038910242961
H            7.75265297460042       -4.97136998450627       -1.55952962025889
H            5.41800898922288       -4.79070368998012       -0.84569245823681
H            3.66723103851505       -3.61642783497011        0.33350420078903
