22
 energy: -3.148135396273 gnorm: 0.000277389777 xtb: 6.5.0 (97a52f5)
C            1.19033541431052       -0.51099901994719       -0.02592400029066
C            2.58129610155237        0.07616897035669        0.10619253814565
N            3.01515915072944        0.85412329850827       -1.09006296256240
C            2.55031162494187        2.28106789504489       -1.14903801296484
C            1.11799399802475        2.43614375836976       -1.61749549136024
C            4.47956712059264        0.71166538051865       -1.31787933287568
C            4.90181989174946        1.03526568434016       -2.73846718000270
H            0.96094132480883       -1.20558745974167        0.78600715059772
H            1.08782052216670       -1.05534433477723       -0.96641364493804
H            0.41946834478411        0.25881052512510       -0.01272523977933
H            3.29954073070241       -0.73479746582585        0.26976273778422
H            2.66079904852257        0.71745293072472        0.99057227412939
H            3.21530808480055        2.82639384601428       -1.82518514354514
H            2.69924318824798        2.73870897305086       -0.16535063458527
H            0.93725964041813        1.84085118380409       -2.51434140842770
H            0.87552579210415        3.47497044112270       -1.85505361703090
H            0.40509621413263        2.10985390142634       -0.86034373851665
H            4.76199211538025       -0.32081972857915       -1.08533669968268
H            5.00677853506638        1.33931736362907       -0.59145910296260
H            4.31037826107456        0.46504776483943       -3.45708768114539
H            5.95424703356478        0.79975069758289       -2.91476512402003
H            4.76573786232504        2.09081539441389       -2.97713568596668
