146
 energy: -27.788192183261 gnorm: 0.000707441244 xtb: 6.5.0 (97a52f5)
C            0.66843636677954        0.17841860182194       -0.43861876639676
C            2.13521023726245        0.47987488277547       -0.66612832198107
N            2.67400547136694       -0.16634754571395       -1.88813675895555
C            2.04902942211618        0.26685800580823       -3.18993341555621
C            1.28295458784384       -0.85771806650983       -3.85055451256005
C            4.15860709785755       -0.16818410333497       -1.89915010425747
C            4.74826138557815       -1.17259387779458       -2.88060657994680
C            6.27275236660366       -1.24239610804950       -2.81320362289825
C            6.86976418079828       -2.26460617803342       -3.77890309752891
C            8.39002139816555       -2.35375316743164       -3.67584337566798
C            8.99995986141043       -3.39141630336539       -4.60476268249425
N           10.45046272800278       -3.52268938056574       -4.41687102480273
C           11.24409389925537       -2.37823914722645       -4.16571424444337
O           10.92183678649726       -1.20946541894732       -4.29771954148650
C           12.51621770403513       -2.89753703673191       -3.69240535299688
C           13.77302463178008       -2.49481055517825       -3.20044799282641
C           14.23286705370353       -1.11866234029219       -3.10253011453251
C           13.66946177801743       -0.13151347979216       -3.91851240527552
C           14.11258052458007        1.16323869730162       -3.87899243694951
C           15.11959601484948        1.55662714499204       -2.98771508803214
C           15.63155183474928        2.91371317289060       -2.94269442258425
C           14.97304015189363        4.08053497794655       -3.24663175857178
C           15.74129925085584        5.30810042849230       -3.50899012327948
C           17.04223554900103        5.49957576017437       -3.03338382995215
C           17.75708202538172        6.63004054447861       -3.35277000560705
C           17.19751538075398        7.60441181126466       -4.15858846535405
C           15.91624054333334        7.44717244256582       -4.62960738371663
C           15.17528312308858        6.31859314659188       -4.30987517225065
C           13.79606919815644        6.20096704081476       -4.80309993364522
O           13.35997233364028        6.96292804545040       -5.64683300564006
C           12.94720532994216        5.16495872918601       -4.20044472571490
C           11.57276962363302        5.21356822523117       -4.38685485409373
C           10.74460553546121        4.31741670769434       -3.75382370354866
C           11.28156465684409        3.36830398407901       -2.90342795366331
C           12.64151166345662        3.30101689432129       -2.71545545141843
C           13.51129902745277        4.16218761967834       -3.39026479606633
C           15.68177418271026        0.56955359478000       -2.16770745058017
C           15.24228660066230       -0.72780181745448       -2.21648516191450
N           14.46902246603481       -3.66271434782913       -2.91471047769758
C           15.87000369713767       -3.83747497352564       -2.53219901769324
C           16.82721883689779       -3.27555200764318       -3.57199053591974
C           18.28665731660128       -3.31529712943254       -3.12649744862266
C           19.23371232801922       -2.67811306727466       -4.14157373790380
C           20.68699915022752       -2.65957850788553       -3.67153616524965
C           21.62719225466420       -2.01206776760230       -4.67774994275307
N           23.05371952986998       -2.00741274569066       -4.21528723876253
C           24.06932996621401       -2.02124257959789       -5.29855892964261
C           24.16542255328221       -3.36456997266555       -5.99216700166028
C           23.33701389609649       -0.94987526311915       -3.20668398497197
C           24.43005502084066       -1.34583025549990       -2.23532715802760
C           13.69262963804246       -4.80791249961498       -3.19636914600175
O           14.02525886525178       -5.97019624431934       -3.03631768134832
C           12.43123694503626       -4.29468495973025       -3.70436629305237
C           11.17188741351562       -4.69054144408968       -4.19599005697537
C           10.73071820395397       -6.05682830820009       -4.41588327876474
C           11.37478204714195       -7.12661815549647       -3.78462029591714
C           10.94468126441025       -8.41520966268292       -3.95621295976938
C            9.84500682818787       -8.70742332665020       -4.77534082327549
C            9.37497558804392      -10.06487308387364       -4.98811912938400
C            9.39686642151829      -11.11678973331061       -4.10519418520383
C            9.20696127701947      -12.49086434311132       -4.59638260479911
C            8.58406907074030      -12.77672683401678       -5.81543457242482
C            8.47592699974711      -14.06855568716974       -6.27419921553363
C            8.98779438419879      -15.11702100074881       -5.53250674728087
C            9.59464151751980      -14.86594995015777       -4.32562106466083
C            9.70421848587868      -13.57041521738805       -3.84132278976594
C           10.32706956410681      -13.34644129744547       -2.52994524564812
O           10.92193531266364      -14.23824903503831       -1.95248215306448
C           10.15761323158530      -12.02346097599141       -1.91582769144006
C           10.44314210578449      -11.85641978658670       -0.56793042043244
C           10.19658009634879      -10.65922703421081        0.06067204811569
C            9.63889184058631       -9.61277321139225       -0.65054592932553
C            9.36078267181482       -9.75885936629204       -1.98868263779618
C            9.65064306774233      -10.94641574793315       -2.66632534445255
C            9.25581596501593       -7.64566076091027       -5.47439263455515
C            9.68700747241228       -6.35675737017453       -5.29836991294746
H            0.30027180482627        0.61306323687907        0.49311991337495
H            0.49704868419311       -0.89805348355950       -0.39248733339885
H            0.04911591273278        0.56726731557213       -1.24763507891570
H            2.72324504862326        0.13356939641855        0.19032619362400
H            2.31216685736647        1.55795938113448       -0.74008026583829
H            2.83385159551646        0.64717345642850       -3.85216800256789
H            1.39589145250947        1.12473483189892       -2.99856684586625
H            1.93594277740343       -1.70640445440831       -4.05850290803596
H            0.82859812720881       -0.54860193137591       -4.79418491254202
H            0.48562498097910       -1.22152303598142       -3.20106700804397
H            4.51196999643965       -0.40071613190446       -0.89038800243711
H            4.51125469649274        0.84379695131447       -2.11811616291242
H            4.43636431164912       -0.92925490952526       -3.90229427338490
H            4.32264111843167       -2.16313832756459       -2.68155106868698
H            6.58386489154437       -1.48119338071690       -1.78901040754829
H            6.69742910185685       -0.25176351518815       -3.01571681182540
H            6.58200898753351       -2.01681394194466       -4.80755309972142
H            6.43015118955266       -3.25101353833354       -3.58830920785962
H            8.67966643401786       -2.58354935665082       -2.64373877836852
H            8.83832371906117       -1.37493104928231       -3.88336351213646
H            8.80784084480622       -3.13844911972455       -5.65117154875055
H            8.52972256180938       -4.35890727602796       -4.41375887189799
H           12.85773377426764       -0.40086026992259       -4.57140647308977
H           13.68880333605418        1.89458681764004       -4.54494728272146
H           16.68208766648895        2.98601492211801       -2.72174263775109
H           17.48778447671540        4.76391543870529       -2.38821588139944
H           18.75822855069052        6.75813232242805       -2.97481239106257
H           17.76170585434900        8.48712601291517       -4.41124811111323
H           15.46075152915281        8.19809182936831       -5.25258997786434
H           11.17080687712501        5.98014167080211       -5.02738873846111
H            9.67898557452236        4.36502237017450       -3.90687949352577
H           10.63283506169560        2.67533925510960       -2.39317166929217
H           13.04987781325360        2.57086172537346       -2.03897496659964
H           16.46107896964843        0.84922687230715       -1.47959292934472
H           15.65805296826236       -1.45043098403648       -1.54020678692423
H           16.04334515695568       -4.91057431231077       -2.39910209710308
H           16.03131429249449       -3.39061873804669       -1.54890592686359
H           16.54573415838723       -2.24359729896703       -3.80803748557686
H           16.70383678613554       -3.82110112166880       -4.51486406731954
H           18.58818927910836       -4.35169171851636       -2.93342205567640
H           18.38778639538807       -2.80361794996530       -2.16173817147012
H           18.90567666162674       -1.65369046723812       -4.35598788543818
H           19.15981478709614       -3.20733972112756       -5.09916882937553
H           21.02534484792552       -3.68179401540781       -3.46527064782532
H           20.75415135283415       -2.14114605935687       -2.70876831074850
H           21.32367010773432       -0.98293645499006       -4.89000174669734
H           21.56582692044368       -2.54398615852871       -5.63039878976315
H           25.03964383504118       -1.75393847700432       -4.86882586022093
H           23.82645072188830       -1.22385123996549       -6.00887446730090
H           24.37409979544683       -4.15701268793833       -5.27189721658239
H           24.95736817128565       -3.38203027908082       -6.74389429334224
H           23.23387251560902       -3.62631850943988       -6.49469756250806
H           22.41291368203553       -0.73661455392948       -2.65994736880742
H           23.58758905694993       -0.02304472733176       -3.73375972100585
H           24.18255413169280       -2.28492684000298       -1.73809347188750
H           24.58391139542046       -0.59092251691658       -1.46129479972929
H           25.38468907129663       -1.49430828172670       -2.74083781386010
H           12.25033429585209       -6.92530190041357       -3.19293964090488
H           11.46601174970853       -9.22456768896657       -3.47491999384443
H            9.03895268973683      -10.26918037000836       -5.98958704757801
H            8.15996761777246      -11.97939725377661       -6.39862052852108
H            7.99086372946418      -14.26582013712051       -7.21619809382334
H            8.90599049764386      -16.12800685467657       -5.89654574761598
H            9.99343344261055      -15.66948762103023       -3.72996017958581
H           10.84615520274787      -12.69363434116198       -0.02369581798236
H           10.42038224261429      -10.54243033957443        1.10830393347733
H            9.42455071568078       -8.68021108791410       -0.15480632432315
H            8.90636524093107       -8.94676677176675       -2.52824760035550
H            8.44844706818600       -7.85622273976367       -6.15471711605953
H            9.25486199227660       -5.56790216020617       -5.88753189549113
