47
 energy: -6.805839437860 gnorm: 0.000808787961 xtb: 6.5.0 (97a52f5)
C            1.93237659863622       -0.08272357303864       -0.49514390964777
C            3.11317267172493        0.80391400765468       -0.14305034385441
N            3.12852536634870        1.19474764624298        1.28508794684170
C            2.56911145712414        2.49228221169210        1.67068001110793
C            1.07765537921610        2.61115844618905        1.40729303207010
P            4.84131746024981        1.29032060401244        1.82522421955471
O            5.15048695175471        2.57608800283110        2.62278577690414
N            5.10298029828529       -0.11834029772520        2.88168043132742
C            4.28148890565350        0.21193617787639        4.05678251224061
C            4.65245819396360       -0.58491534610241        5.29790700755250
C            4.69864861824952       -1.23716163015210        2.02396474370407
C            4.98336380002539       -2.60472611100694        2.62467043056759
N            5.99847834753906        1.16665089944109        0.48473068764381
C            5.87465572652848        2.46526163165305       -0.19294738448654
C            6.22080731510951        2.39665040506416       -1.67287229453886
C            7.25989412466987        0.93192794967088        1.20867432010844
C            8.47973293958289        0.84903521104196        0.30570944594694
H            1.94455673960186       -0.38298996198633       -1.54514002192390
H            0.98440427560223        0.42195178425566       -0.30830437647522
H            1.93257048617899       -0.99129137547795        0.10848950164201
H            3.11320368740045        1.71228009944210       -0.75986886667227
H            4.05344074877825        0.28450614071978       -0.37100648198943
H            3.12500819005351        3.28882546742708        1.15643015425451
H            2.77991073188159        2.62917622237114        2.74220312061182
H            0.86235423336880        2.60003764907428        0.33792537362458
H            0.66223338299874        3.53582318149714        1.81408105310382
H            0.53760029359407        1.77747951433326        1.85909675203345
H            3.21918690993331        0.08677000610554        3.79668922328482
H            4.42238778470725        1.28693901052291        4.25525568376453
H            4.42643628854859       -1.64406388630097        5.18244420088421
H            4.11774264177812       -0.23369569146689        6.18302508589734
H            5.72111565179520       -0.50287060372224        5.50161659846195
H            5.23468668320020       -1.13200117379758        1.06789795003948
H            3.62984408230311       -1.12858581467329        1.78721102143562
H            6.01038355816230       -2.66114469807712        2.98805340176969
H            4.84351626973472       -3.40697849169464        1.89680273501518
H            4.32460498040434       -2.81824570124639        3.46613835644644
H            6.50527535860328        3.19736141889315        0.33480367761697
H            4.84666560830758        2.83086091070495       -0.06532800069943
H            7.25296312653003        2.08547971899441       -1.83012035825665
H            6.08826694012776        3.36011496878599       -2.16932924029742
H            5.58847617368663        1.66971711501108       -2.18425365833673
H            7.14808948341897       -0.00290989516427        1.77937272489263
H            7.37640535871823        1.72825814971935        1.96130785021563
H            8.32737915676915        0.11305769249991       -0.48514894597451
H            9.37743433658656        0.56415724454125        0.85867599102101
H            8.68532268254670        1.80711476334493       -0.17283713842828
