33
 energy: -4.911471250167 gnorm: 0.000588347675 xtb: 6.5.0 (97a52f5)
C            1.90650134647050       -0.91546799150901       -0.16097705509637
C            2.75388379088221        0.22592715570983        0.37378285845345
N            3.00334260209747        1.28996903686535       -0.60069001850813
C            1.96912723162944        2.29824763983942       -0.86340578165903
C            0.81015210193910        1.79662028304744       -1.70509041155989
S            4.26740286788873        2.20757031136550        0.18608395380667
O            3.62595005589800        3.03917356558204        1.26615387614446
O            5.42920976606259        1.31350778976631        0.53421010269978
N            4.75909145805312        3.19942878127808       -1.17177684092186
C            5.73005900067106        4.15682644624888       -0.62081300883631
C            5.08479058589462        5.29495251508583        0.15162039419767
C            5.27151989187124        2.22077725247098       -2.12876622213229
C            5.67080650951558        2.83537018985201       -3.45830712362592
H            1.88936079183298       -1.76515761697853        0.52453573334284
H            2.29624919401082       -1.26776525328416       -1.11676062587267
H            0.87293740193083       -0.61325290915983       -0.32141513717397
H            3.73757112949464       -0.16318765718376        0.68161793443417
H            2.30990517938248        0.67082180697232        1.27647915741751
H            2.46065238287197        3.13782424076185       -1.37656621573675
H            1.62008273097919        2.69954733349564        0.09906010307233
H            1.17456239526319        1.26077922690139       -2.58234770984004
H            0.17677453074864        2.61472751089925       -2.05411177011928
H            0.16983265610456        1.11627775191761       -1.14531800397593
H            6.31604584415876        4.56450534542760       -1.45423655233630
H            6.44045473924190        3.60213563263135        0.00826329244304
H            4.38643644210943        5.84463097101982       -0.48025828363975
H            5.82127609165456        6.00345434090258        0.53475883070980
H            4.51631270298879        4.91370845254053        1.00088756920874
H            4.48905028299339        1.46462689382512       -2.28602351112113
H            6.11658184370669        1.69136255937872       -1.66486207779180
H            4.84728678193285        3.41452905512812       -3.87720599315241
H            5.95183198316031        2.07656715640342       -4.19111228072334
H            6.51880768657646        3.51119218279233       -3.34875918211057
