41
 energy: -8.379227434149 gnorm: 0.000704295891 xtb: 6.5.0 (97a52f5)
C            1.69900411736272       -1.00928975898818        0.02515485541831
C            2.49657954796155        0.26746043615045       -0.14003610173514
N            3.00198659254842        0.79726999845619        1.14374391327226
C            2.01067341039876        1.11401124705346        2.19289649655368
C            0.90276456806015        2.02868038044650        1.71407041328446
C            4.39331166299647        0.89645879163183        1.40103931060122
C            4.89985823277164        0.65522588467503        2.68151452247048
C            6.25812146697028        0.75004814192500        2.96038616285456
C            6.79067517008673        0.49770768330337        4.26576992134741
C            8.11465814575451        0.59897291748908        4.51374806559883
C            9.03710038405499        0.96235457981125        3.48184370966769
C           10.40591027835767        1.07799203804109        3.71299393514229
C           11.28318293948748        1.43363062938566        2.69620659311471
C           12.65837629709833        1.54440340111394        2.95732193204422
N           13.79618638626529        1.63522779615313        3.17363329643992
C           10.79013940854191        1.67913189420889        1.42080597164229
C            9.43011549645000        1.57659981152914        1.13724260646716
C            8.89911695002948        1.82555820741580       -0.16807657789226
C            7.57575039725656        1.71997098231486       -0.41782490346410
C            6.65182470150272        1.35437581697548        0.61373502253175
C            5.28580499541783        1.24277490873865        0.38224362612774
C            7.14874566570688        1.10535638983987        1.91717770521663
C            8.54153347934382        1.21444696347048        2.17911527316145
H            1.37090281466376       -1.41544554558978       -0.93392155327393
H            0.80828649061664       -0.84928686792647        0.63357211794694
H            2.29496764294856       -1.77596543315061        0.52252632494147
H            1.90490422319423        1.04830414139983       -0.62777193055374
H            3.35032971177102        0.08522691662523       -0.79945013289491
H            2.53947384466934        1.58646594764970        3.02658387434905
H            1.61024539257820        0.17422600949642        2.58523560101634
H            1.31459836266543        2.94497334574079        1.28852383341907
H            0.22810854134595        2.31338256039086        2.52440718466868
H            0.29837786417310        1.55536035429900        0.93935777371300
H            4.22996342260959        0.35462885065975        3.46523057518574
H            6.11107202528197        0.22410161693163        5.05404294119982
H            8.49774074979998        0.40665336818513        5.50082716224460
H           10.79565377519122        0.88982681121465        4.69723946450519
H           11.47587878278589        1.95434223159563        0.63975142554994
H            9.57916123852027        2.10182534492243       -0.95501094117991
H            7.19390375892297        1.91134146158339       -1.40558969081032
H            4.90650106383838        1.46913974483263       -0.59656977989209
