97
 energy: -12.481464642997 gnorm: 0.013976429379 xtb: 6.5.0 (97a52f5)
C            1.05638386683222        1.55827565336167       -0.83893502479283
C            1.34999424626202        0.07309463621185       -0.84175921109721
N            1.95899560482651       -0.37429514840039        0.42639475652420
C            1.07584435762484       -0.90096159381155        1.49668763523867
C           -0.38316336703694       -1.10429106769384        1.13586022174978
C            3.31720062316347       -0.18777479584974        0.67324603771060
C            3.88274646615432       -0.55518040928101        1.90716655026445
C            5.21640765896598       -0.38603744021917        2.15471048529702
C            6.06520472800884        0.15548116455792        1.18697827836469
C            7.44659424397403        0.29163624320389        1.43896010168899
N            8.30288219354313        0.95757614181071        0.73176901583748
C            9.51071764504076        0.76113444754049        1.19910447712103
C           10.66028993869527        1.31102095214797        0.79045430171981
C           10.78355727811231        2.28635793320626       -0.05931758157586
C           12.02780309044183        2.62696940139020       -0.24874314662764
C           13.19309549943658        2.23114534132276        0.35802041771880
C           13.45298023401055        1.98431097604186        1.63956950831193
C           12.63470069019556        2.07031528450865        2.66956376043788
N           12.86082632923981        1.82962073042345        3.92699418313112
C           12.06750153141042        1.74992494333607        5.05304814258329
C           11.18749007611122        0.71011378417707        5.38005063999609
N           10.66094990066017       -0.44227859181861        4.97021869821191
C           10.99321789321093       -0.93363163508781        3.74956223566013
C            9.82608109483227       -1.14045786565164        5.75246219990994
C            9.31046850243672       -0.93201840862725        7.00460691990753
C            9.64163760718103        0.27718650207793        7.74995441737694
C            8.47627064811549       -1.86036581779446        7.53443289801002
B            7.82237607394276       -1.85739795068440        8.77245255584030
C            7.84582984261880       -0.87678306041411        9.79498553106076
C            5.40373171055612       -5.75950611699702       10.47260567491238
C            6.06871915654740       -4.93382490185076       11.27212953435271
C            7.35284938925685       -4.45488487748232       10.86917859531937
C            5.52293657231972       -4.59039379176639       12.46562245321444
C            5.99827383168532       -3.78211104598483       13.34789001513829
C            7.92919019801353        2.67831316142650        9.86390362522024
C            6.24156465675348        0.95675058884913        6.83064989199373
C            6.35580385413395        2.21992010105326        6.72345232636281
C            4.59598026946921       -5.66605348051479        5.03585667107749
C            4.65277020329111       -2.84222151181249        8.07619288603521
C            3.81032604713404       -1.96855267175541        7.81177359676444
C            0.31990768481634       -3.02910791805799        4.21933160345818
C            0.94756609722455       -4.15147762971834        4.52145611588533
C            0.49347117868910       -5.03032201340502        5.36938106934423
C            8.73667712964984       -5.20782644628739        6.04850508992797
C            9.19139869837630       -5.95410624875006        7.05313118462246
C            9.73881467583702       -5.44832004494530        8.14397045350466
C            6.12015687059261       -1.02636403550796        4.76214480137714
C            6.42484142381299       -2.31918754369876        4.94851750603061
C            5.51338090787263        0.54083527546011       -0.03637242925872
C            4.17754016208858        0.37531736105376       -0.28833384930792
H            0.62307429540596        1.89479124612339       -1.78338246259584
H            1.96372003825389        2.13856374129536       -0.66460429118650
H            0.35845124764342        1.81776814652236       -0.04139608590591
H            2.01975788748658       -0.20047876986022       -1.66315490875854
H            0.44146281461240       -0.50404636522850       -1.03300369728623
H            1.15595608974517       -0.21383128730680        2.34621583972509
H            1.50432528997987       -1.85215988573619        1.83059808118476
H           -0.84607564371555       -0.17399520103759        0.80345844218719
H           -0.96369863174201       -1.46575437775750        1.98786982668523
H           -0.49763346892840       -1.83909634645950        0.33729092670267
H            3.25840413864165       -0.97529704854653        2.67466734889330
H            5.62696001526482       -0.65130093265107        3.11599750478343
H            9.03172343743003        2.82796585401411       -0.39272332244081
H           10.52721733569624        1.12422544151623       -1.73186090811337
H           13.10199829177055        4.78051769083350       -1.69882311341683
H           10.94706767420304        4.83830592702768        0.12796263173249
H           10.17616726054989        3.59990725276462        1.62414927916342
H           12.81951260581985        4.16832238929152        5.80336969141811
H           12.94618586681577        4.94241702905681        2.70048749925173
H            8.79566435658412        0.92837383913272        7.86114498013531
H           10.06650368606711        0.06275262194368        8.71265537153548
H            6.12198704499078       -5.34713320795240        7.53754437605248
H            3.48508531573047       -6.97689493489541        8.80529511941498
H            8.00474233695896       -7.16858726580563        9.81431525745239
H            6.42026968082399       -6.65022233221975       13.52993632464983
H            8.36705646916058       -4.68053576283839       15.08550263845568
H            4.34996296676880       -0.77259478858189       12.81706696978454
H            7.45315978796364       -3.40709591705721       10.94679051496056
H            5.20185165115898       -0.05236131551107        9.33676831446333
H            6.95892401463605        2.92362738934966        9.64534531907265
H            4.37184870939574       -0.53470765958447        5.11616964552084
H            7.62255910078498       -0.03879459830750        4.18092382195699
H            6.22681030631425        0.30480573107594        5.99953910404720
H            3.66734721059238       -3.26746390331730       10.65455947735281
H            3.09242660989688       -2.45808990296853        5.16927716175055
H            2.43716408830745       -4.59016922490829        7.52520887118299
H           -2.20520201934063       -5.61117911952855        6.47246521070219
H            2.42582467269674       -7.35816950073055        5.99230120234933
H            1.89235944399366       -4.35101951146634        4.03837024901773
H            6.62338851789168       -7.85170090856881        5.68786194106889
H            8.78673801118859       -4.15744976127917        6.05648169458708
H            9.11190687369359       -7.02731511775836        6.97169830714470
H            6.27443462740129       -2.57419248208590        5.99812733229084
H            5.78376777210253       -2.94456655031372        4.32654783506622
H            7.46697707853325       -2.48652511912184        4.67517648340378
H            6.16413617959210        0.96528589793952       -0.78146262745771
H            3.78462308128738        0.68553141647661       -1.23910549208898
