43
 energy: -8.331113398615 gnorm: 0.000782831011 xtb: 6.5.0 (97a52f5)
C            1.66295014710135        0.52675787823775        0.79375340078871
C            2.56641055885259       -0.40031755849182        0.00746477579163
N            2.97021395049886        0.15295342388078       -1.30172814682965
C            1.90314397198580        0.60051675895466       -2.22046871082686
C            0.90474486473612       -0.49133942148760       -2.54324918164382
C            4.33908948328104        0.22876854962032       -1.67437169896826
C            5.25555142167208       -0.74166542576100       -1.25912941025298
C            6.57753732960515       -0.66876293596887       -1.62476127666935
C            7.06080950108716        0.37416358078598       -2.41684836251007
C            8.45767602667228        0.40435552798937       -2.76863215477555
N            9.02730249728786        1.32562741791588       -3.45856045336444
N           10.33551664585853        1.30543859742823       -3.76010623420002
C           10.99559268256013        2.32281003535544       -4.46016744686531
C           10.29837540644038        3.45466353681998       -4.87120438007313
C           10.93748834439827        4.46184786124540       -5.55284812863193
C           12.29545579850651        4.36797218494898       -5.84597458862231
C           12.94977253634155        5.39421568377033       -6.53985359242870
N           13.49374906478414        6.24577026014580       -7.11450093733749
C           12.99246250655285        3.23418508214166       -5.43563737333086
C           12.35461996570187        2.22653775115067       -4.75290221759102
C            6.13886364337225        1.37135291477780       -2.84464914969594
O            6.53897238705366        2.43494309872237       -3.62557771645711
C            4.80799268137783        1.27393290333138       -2.46623014981832
H            1.43360763896928        0.13135544569118        1.78553935775131
H            0.71405947590412        0.69047600784056        0.28180686238967
H            2.13050432972068        1.50356471268870        0.92644214864504
H            2.09255927891689       -1.37266395227445       -0.15998613765768
H            3.47369251757103       -0.60427250696750        0.58453922386143
H            2.37152922760096        0.95452188734494       -3.14384602205900
H            1.41264231898006        1.47455180515624       -1.78079107231685
H            1.40782837719884       -1.36673332340536       -2.95640726712328
H            0.15926828554365       -0.16296264501228       -3.27040058209888
H            0.36862696894844       -0.81886001561782       -1.65197913454382
H            4.90777075005193       -1.57422601856185       -0.67391773541975
H            7.26314862347254       -1.43258089645416       -1.30013669445662
H            9.07801043139094       -0.40132893878816       -2.41957499201030
H           10.87048299144809        0.49350410607446       -3.45461224158715
H            9.25047223478148        3.52886149764733       -4.64253496172779
H           10.39619842546087        5.33817706258626       -5.86761785702951
H           14.04276564086196        3.16049201980059       -5.66199296293344
H           12.89844853621842        1.35314053885928       -4.43763757540605
H            7.50025909618367        2.30345931819209       -3.76213592642621
H            4.14090343505207        2.05668618968319       -2.77190329553586
