68
 energy: -12.565025321906 gnorm: 0.004951643610 xtb: 6.5.0 (97a52f5)
C            2.72552623775187       -1.27664122551801       -0.13176706098924
C            2.98395543527495       -1.20116394474208       -1.62092877270825
N            3.41393100218104        0.14561770479382       -2.03781832580593
C            2.32480910781425        1.05918092512075       -2.42911423372859
C            2.29785630936383        1.32935528827044       -3.91806387573395
C            4.73401548473754        0.59813701706489       -1.85513159578250
C            5.73519801026001       -0.25127499056027       -1.35937838693009
C            7.01123939289104        0.20344078505166       -1.15544311847649
C            7.37124648956111        1.52572364702472       -1.43700116209115
C            8.73981235171732        1.92688694847428       -1.26834601492228
N            9.24890750428639        3.05641245109529       -1.61388199472840
C           10.62516205069645        3.25688136780983       -1.69502500025288
C           11.21852382291153        4.37364455912878       -1.11543431259703
C           12.58292202385610        4.54250394948183       -1.15137719695305
C           13.38397133830087        3.59817091910274       -1.77140357165876
C           12.81834582009750        2.49374485496763       -2.36543396205887
C           11.43983690247795        2.30841729897012       -2.35698982944931
N           10.85976363644347        1.21299226150216       -2.99099276457949
C            9.85019984622807        1.35022469279214       -3.77264779607977
C            8.98265743724606        0.30386756760153       -4.21689735224130
C            7.82952219717025        0.63557723297467       -4.93428812997971
C            6.94249875698029       -0.32428563078768       -5.33816761416940
C            7.15567979027414       -1.67804551211904       -5.04393749497644
N            6.27078326242839       -2.66659873787649       -5.51529308040789
C            4.96216508475605       -2.32286173605134       -6.10397827880480
C            3.99025370423477       -1.78540685063646       -5.07701538327822
C            6.56315521765331       -4.10953787242731       -5.41187946931522
C            5.88276816877523       -4.75235430692107       -4.22297347934134
C            8.28158109040153       -2.00875443616377       -4.29765292891192
C            9.20535763996452       -1.05610935451992       -3.88141650926093
O           10.30737288146063       -1.42345810787380       -3.14619215623344
C            6.37267372358104        2.39749932700132       -1.95385357215770
O            6.65951021413294        3.70249916203084       -2.28321679467711
C            5.08443823874570        1.91536506612364       -2.13933199192251
H            2.42555070628261       -2.27811327080326        0.18446762580708
H            1.93470310660135       -0.58422193993874        0.16294480321869
H            3.61624620768810       -1.00419297316761        0.43642868758337
H            2.08733593484201       -1.47064674294427       -2.18959804757917
H            3.74473591712404       -1.92508620500026       -1.92874634775395
H            2.43051573031565        1.98356610046802       -1.85273811909494
H            1.37091630501045        0.63038451163986       -2.10383310914379
H            3.26014485969682        1.70231305602130       -4.27278368786893
H            1.53457832991544        2.06246430161939       -4.18761078279439
H            2.08380974197561        0.41870847119446       -4.47759162827774
H            5.50136202427739       -1.27544504901697       -1.13300127596440
H            7.76542986683790       -0.47119832499736       -0.78603233243238
H            9.43470013666983        1.16306751837108       -0.96018180160468
H           10.58890588559654        5.09399734084356       -0.62302467038349
H           13.03074101503987        5.40703039613018       -0.68911504701922
H           14.45295468482993        3.73262048783769       -1.79282820257065
H           13.43166244752151        1.76070844037971       -2.85945543000017
H            9.55140937941080        2.36057028845766       -3.99402845014220
H            7.63123440612520        1.67222442636790       -5.14667745587506
H            6.06963047069274       -0.03603851620164       -5.89225343907094
H            4.55110200753859       -3.21635344372041       -6.58280253725242
H            5.12685083071558       -1.60608992297736       -6.91478085826872
H            3.75840746735748       -2.53881599782941       -4.32405590185869
H            3.04946904573262       -1.47165980097935       -5.53282566634393
H            4.40891346230050       -0.93034120445153       -4.54585016313188
H            7.64688738498086       -4.25009206504432       -5.37319468181550
H            6.25452527691997       -4.59042978101917       -6.34605297168247
H            6.13576018108116       -4.23508470172773       -3.29686984694596
H            6.15939486895472       -5.80214129602224       -4.10647418743188
H            4.79737949131729       -4.70828519393839       -4.32866274634311
H            8.43689375410341       -3.02713626470052       -4.00312478965725
H           10.32240577520312       -2.39850236728972       -3.02051250810441
H            7.61927480900024        3.80704103156181       -2.11069302581547
H            4.35278831279701        2.60104837118218       -2.51829819326091
