154
 energy: -28.421017425356 gnorm: 0.000520972328 xtb: 6.5.0 (97a52f5)
C            2.06687627035823        0.65891387217167       -0.12329301108695
C            2.37350582243799        0.69154455410092       -1.60596209880167
N            3.12219810545388        1.90430929293733       -1.99442618337174
C            2.35746424817246        3.08712163623500       -2.46550265293243
C            0.86091846620613        2.90714040915104       -2.63854228382352
C            4.48610103418316        1.99665149201801       -1.78957047597307
C            5.19377640108667        3.17497089026259       -2.11052186319206
C            6.53379515630911        3.28322330220379       -1.87753481587409
C            7.26684792663863        2.23107210915540       -1.29848055869839
C            8.69117076659888        2.37756136930723       -0.99321819621656
C            9.22820344847302        3.65238425659785       -0.64684347135964
C           10.64040600417581        3.95493771396203       -0.90372432771584
C           11.38379604460954        4.76026927568726       -0.02439216608894
C           12.72319155406779        4.96470444818928       -0.22180734846045
C           13.37082686604675        4.37622657733453       -1.30176902685688
B           14.89720382940022        4.50741514301691       -1.46225465333078
C           15.77917878692484        4.75303713827780       -0.19353366706428
C           16.63047764838804        5.85760399021595       -0.14618716840223
C           16.71205087632680        6.80710654736354       -1.28859619191705
C           17.38496594716597        6.06973201095839        0.99405012044608
C           17.31648536032605        5.20905142605690        2.07998059624537
C           18.11064121457968        5.47255122003765        3.31179564572141
C           16.45886167562731        4.12093353194876        2.01175090832641
C           15.69295690680371        3.87178021193037        0.88780710697651
C           14.78719888785793        2.68929512126233        0.86512314462826
C           15.54752881832752        4.29430643695916       -2.86984899779281
C           16.49146787086591        3.28693999463142       -3.07532081272752
C           16.89919255234497        2.38075403914173       -1.96822959360994
C           17.02675259272730        3.12292697575175       -4.34077170136368
C           16.65092702663973        3.93640036859789       -5.39967081762752
C           17.21581651301838        3.72146058298723       -6.76059825368945
C           15.70364848522084        4.92411831804004       -5.17374253415293
C           15.14996545210639        5.12242241437377       -3.92238719424102
C           14.13014668237127        6.18958824980737       -3.72995743691736
C           12.64597105028420        3.60728292357493       -2.20324397306513
C           11.30625953830085        3.40500751584648       -2.01301827349678
C            8.38693367006959        4.67362921301406       -0.01707349139145
C            8.61628124530667        6.04151564860686       -0.24058237850871
C            7.79773863276685        6.99108346295703        0.30977220798716
C            6.71972523623585        6.61440342022272        1.10195597473751
B            5.75520881519640        7.67698684668694        1.66180407386482
C            5.61383322656729        9.04713189027968        0.91992103749627
C            5.85382131152862       10.23809720385428        1.60619442947311
C            6.24445497270954       10.22600982508017        3.04166549227802
C            5.74312318402522       11.43580287744295        0.92229687524129
C            5.39605392251130       11.47539586271607       -0.42037635668048
C            5.31375604695006       12.77203362502655       -1.14799312710670
C            5.16911020126245       10.27815178149435       -1.08309720047343
C            5.26356628853269        9.06152959674531       -0.43282227401479
C            5.01292919409454        7.80311794947521       -1.18905568794146
C            4.89150376010620        7.34925042952719        2.92545650765646
C            3.49812911313800        7.40655148606695        2.86767370813893
C            2.79764608916037        7.77203650575722        1.60713301559272
C            2.76990136344196        7.09026188398756        4.00104876167441
C            3.39206126311899        6.72594381467099        5.18617197805884
C            2.58949170688952        6.35820498150126        6.38539008351278
C            4.77745575961656        6.66768586768312        5.21720468880619
C            5.53985043547599        6.98169496617155        4.10727918904351
C            7.02399167706523        6.89904456541224        4.18906815531543
C            6.49023904810190        5.26812746666088        1.35507737107796
C            7.31075401669773        4.31641568727569        0.81359708420532
C            9.56270265169579        1.20211758894156       -1.05098410538839
C           10.69828120520469        1.09683896540992       -0.22598349614490
C           11.55905201443045        0.04338203652467       -0.32753163095514
C           11.33635111186635       -0.99486886733728       -1.25569441987285
N           12.22689328742241       -2.04106644237691       -1.38575104829598
C           13.50559460230184       -2.09789396978613       -0.65006731953591
C           13.34337446853402       -2.67484726097553        0.73994780020384
C           12.00263580164256       -3.17254770867401       -2.30571956945947
C           12.42166156920968       -2.84883209704688       -3.72421354480129
C           10.17494219385293       -0.90996377067013       -2.05332551976382
C            9.32195166888437        0.15196919268974       -1.95520866288949
C            6.56959824673732        1.04775279810996       -0.99692766273043
C            5.22970843380863        0.93265385239276       -1.23345674173771
H            1.51641400829154       -0.23983841205381        0.16414705591634
H            1.47053677270871        1.52321666001480        0.17311076333688
H            2.98210844500014        0.69026115055685        0.46989317709209
H            1.45500289617606        0.62735400027189       -2.19538607817964
H            2.95091210068635       -0.18603728093165       -1.91388874237670
H            2.80023282060933        3.40236404064065       -3.41647272220232
H            2.55247680130899        3.89763746308229       -1.75441312114632
H            0.63355453221220        2.15910037317142       -3.40002993210922
H            0.37444881988436        3.83529148726318       -2.94833886546079
H            0.38576947147385        2.59233561471189       -1.70816332070340
H            4.66833324484790        4.00846722828316       -2.54053153712553
H            7.05021927683044        4.19263881744541       -2.13217586752681
H           10.89429319957662        5.18429047234790        0.83529395458635
H           13.29473855025539        5.56254759918249        0.46676298880678
H           15.74951478695869        7.28986468483836       -1.45996599494067
H           17.00359714974138        6.29155774746945       -2.20418591319600
H           17.44781763435380        7.59120496815118       -1.10415873823966
H           18.03582516486619        6.92477839820136        1.04388921435668
H           19.01416576885176        6.04072661189376        3.08518197728388
H           18.41709471958599        4.54030902903642        3.78880637837496
H           17.52620693543795        6.04435595994281        4.03424041791647
H           16.38668907606606        3.45537665258389        2.85393993581973
H           15.29934945737328        1.79708907577749        1.22853701660779
H           14.43146273333572        2.47669835478470       -0.14284273127871
H           13.91400970281756        2.85742756146351        1.49716733300937
H           16.05306305492209        1.78556292031740       -1.62375405311484
H           17.28744742012660        2.94786619809008       -1.12181848585658
H           17.68140013871090        1.68987998987009       -2.28609232635337
H           17.74697277356768        2.34222538797462       -4.51118067727402
H           18.22981689945819        3.32198921308060       -6.70766312311078
H           17.25759231892492        4.65614210957844       -7.32196819882007
H           16.60531988102073        3.01593997968669       -7.32624376689589
H           15.39051378783875        5.54927056740411       -5.99139130809655
H           14.44575738489189        7.12170660654394       -4.20102648175029
H           13.96174758155204        6.39387781687578       -2.67261831336924
H           13.17518992107563        5.89605229078963       -4.16828390830281
H           13.15661220156032        3.15705914783092       -3.03660621025681
H           10.74915086129381        2.79961169119927       -2.70694234671367
H            9.43042213802964        6.33674122107992       -0.87967816346566
H            7.96879525648245        8.03732931693148        0.12468270896732
H            7.18596953007983        9.69433579021126        3.18193679047862
H            5.48218664174414        9.73710662584452        3.64917736932919
H            6.37487945011218       11.23777987023378        3.42828416604716
H            5.93616256053183       12.35845777839695        1.44059529876103
H            5.08481173281339       13.59328291787248       -0.46706475327373
H            4.53276249348865       12.74640766974298       -1.90952607780355
H            6.25932095423618       12.99908042679023       -1.64276815997423
H            4.91488708492763       10.29628485297931       -2.12832007709387
H            4.11696146247429        7.88883861210977       -1.80568626363167
H            4.87202707556031        6.95525457448800       -0.51880522636553
H            5.85296697610528        7.57146868792750       -1.84549664665849
H            2.99211322601538        7.03426837273354        0.82820208342591
H            3.12613575514189        8.74696133121770        1.24602527423052
H            1.71753326297332        7.82345972784401        1.75181214969860
H            1.69527882735453        7.12099658462055        3.96257369050771
H            1.62809415090345        6.87419217954634        6.39008975913252
H            3.11212533964783        6.62452272198419        7.30543049609429
H            2.39525749932728        5.28478486794574        6.40706697262191
H            5.27083166891926        6.36942697409509        6.12553944420560
H            7.39277672894190        7.37834817780603        5.09714894834346
H            7.49840399297244        7.39080722767370        3.33992636625867
H            7.35395264725533        5.85919177193650        4.19831757499717
H            5.65308401798126        4.98652161169375        1.96978178223437
H            7.12978517749456        3.27449702338987        1.01299990352814
H           10.88764178399737        1.87532261135374        0.49270770268124
H           12.42127813299757        0.00499166683183        0.31318251519860
H           13.93666261953989       -1.09178054061030       -0.62049805559954
H           14.21596142661129       -2.69211343597977       -1.23532562667645
H           12.63841548755272       -2.08875073178529        1.33143921178956
H           14.28933795045960       -2.70673443184849        1.28546208467381
H           12.95072482124975       -3.69221005626119        0.69657179298758
H           10.94822678320634       -3.46226829184062       -2.25342397998696
H           12.55407534873946       -4.04028640884779       -1.92731123319909
H           11.87602533852653       -1.98655697224202       -4.11040172137048
H           12.24807121463550       -3.68472115327364       -4.40577716686358
H           13.48281671259694       -2.59805516963099       -3.77004420187486
H            9.96784568016656       -1.68594459137481       -2.76768791889101
H            8.46566563418669        0.21436355640163       -2.60441510873328
H            7.10580322400937        0.23469516222145       -0.53853446546148
H            4.73166062941128        0.01688315664543       -0.97238865701196
