14
 energy: -2.087081668942 gnorm: 0.000564742166 xtb: 6.5.0 (97a52f5)
C            1.32304659949009        0.18544153366692        0.01846148226409
C            0.60444725238491       -1.18207715421068        0.10652063316676
C           -0.87993010356984       -0.87896010380779       -0.14750597052259
N           -1.07972113908272        0.55097857421270        0.15308808174388
C            0.20300255124395        1.23806740767357       -0.09891633806373
H            1.99887447112467        0.23076990801095       -0.84446130106833
H            1.94404140939051        0.36452710003027        0.90490785410417
H            0.73808058109623       -1.63027987623787        1.09834846470123
H            1.00239123225997       -1.90396573198303       -0.61744613658288
H           -1.54750312526901       -1.51130902432424        0.45101747592220
H           -1.14427311068343       -1.04428051555351       -1.19743673549510
H           -1.33385404443121        0.66208339364122        1.13798385927804
H            0.34783315454341        2.08228056862879        0.58709474755981
H            0.16121427150252        1.66001392025278       -1.10945611700753
