114
 energy: -21.178248824645 gnorm: 0.000258683917 xtb: 6.5.0 (97a52f5)
C            2.19476633523411       -0.33172730926874       -0.89510502953261
C            2.39050836286611       -1.77892045319831       -0.49441094491227
N            3.14526709846873       -2.53969605775097       -1.51081099607009
C            2.38549588446392       -3.24611994475131       -2.57270702142637
C            0.87920609100643       -3.30809993135676       -2.40314197938047
C            4.52990542684258       -2.43960256790094       -1.59621149754378
C            5.24228626206041       -3.08183071826804       -2.62663587043882
C            6.59637558523968       -2.94224022453885       -2.74721372401252
C            7.33212898193105       -2.14506120864347       -1.85578899199358
C            8.77683570047149       -1.93380901225523       -2.03320862721006
C            9.33284685002963       -1.84475990585976       -3.32873182601554
C           10.76127453550103       -2.13983922755491       -3.56318309009963
C           11.50544944310864       -1.39323148583140       -4.48059359469431
C           12.83640911295333       -1.66795228156119       -4.70032576379753
C           13.45542736542384       -2.69465234137710       -4.01409506160441
C           12.73686259503932       -3.44933847951437       -3.10752877657367
C           11.40564578422595       -3.17902574342854       -2.88573027415352
C            8.49891150992134       -1.48968318549804       -4.48197592752952
C            8.72598176669874       -2.06552769418695       -5.74338760448242
C            7.89611247553546       -1.79569145098521       -6.79853470005385
C            6.81676714214757       -0.93412383962665       -6.63907980016734
B            5.81709909076493       -0.70624676001574       -7.78826249465905
C            5.57727815516820       -1.84564657184678       -8.83344862667029
C            5.73400231938963       -1.58176452184498      -10.19471164926051
C            6.13931360067239       -0.23087407779073      -10.66814416637457
C            5.52310219145473       -2.60549456191804      -11.10127436374314
C            5.15684093673198       -3.87769596128451      -10.68716929282802
C            4.96357862307391       -4.97135475402111      -11.67924718341069
C            5.01520140231131       -4.11840439221664       -9.32828855736672
C            5.21013899468722       -3.11975715689216       -8.39184618273194
C            5.04475138900465       -3.42820775736271       -6.94402927824423
C            4.98296245513166        0.61729438806001       -7.83238938549232
C            3.58834245084540        0.58637929579868       -7.78797197164709
C            2.85321511956116       -0.70233999737178       -7.67811677505434
C            2.89399630990646        1.78292702079496       -7.81791323122559
C            3.55052369906828        3.00233061435522       -7.89599825779375
C            2.78182562468334        4.27770120515194       -7.89964282556364
C            4.93734046526703        3.00848091952718       -7.92677675872140
C            5.66613556371016        1.83378372793288       -7.90334636516011
C            7.15335065235370        1.89018722564999       -7.93105987654976
C            6.60255187947775       -0.31900324440425       -5.41193709050682
C            7.42895035158604       -0.58658859760936       -4.35509803213638
C            9.62232529645172       -1.81907419343211       -0.83829698596432
C           10.75512638864068       -0.99051443499808       -0.82027904562036
C           11.54275209990577       -0.88602887078341        0.29190265134634
C           11.24605653199715       -1.60184071353421        1.46623087966244
N           12.04797200593520       -1.49880523970787        2.59499474634236
C           13.27786803429069       -0.68410718116013        2.62637701898838
C           12.98841948786196        0.77819316770873        2.89106388960451
C           11.75211961140349       -2.21137662483512        3.85239634370941
C           12.24749995420107       -3.64171091624493        3.82732921531366
C           10.10479687044897       -2.42518207399551        1.44935811370747
C            9.31878753349453       -2.52670154001918        0.33491458202727
C            6.63091688285113       -1.53225115989546       -0.80630032137975
C            5.27636086363604       -1.67287866770933       -0.68031858522571
H            1.64032537591770        0.23350854362916       -0.14251529938499
H            1.64832944721403       -0.25631813233332       -1.83654724052613
H            3.15267569383667        0.16831561588910       -1.04650957508780
H            1.42926012398319       -2.26772081707166       -0.31436488956265
H            2.91532178220719       -1.86078034045475        0.46261019881989
H            2.78696464760670       -4.26315678326121       -2.63681825279566
H            2.63295793504184       -2.75917148134171       -3.52256035184244
H            0.60199361854059       -3.84582064471195       -1.49473576378342
H            0.39827728507686       -3.82230415773484       -3.23877352107859
H            0.44123157864030       -2.31035704755449       -2.34656487827526
H            4.71286487722995       -3.68516353343236       -3.34175194768646
H            7.11804680845951       -3.43883589255030       -3.54717245681058
H           11.02406145344402       -0.58787086008857       -5.00855124931561
H           13.39716945450342       -1.07981554041251       -5.40855182276200
H           14.49798680207925       -2.90753668790397       -4.18671181537063
H           13.21929106939570       -4.25106759180861       -2.57233689841924
H           10.84349183547826       -3.76984006333275       -2.18309937207669
H            9.54411656624925       -2.75477330537324       -5.86154187227858
H            8.05646380161614       -2.25908834225061       -7.75655752649945
H            5.41985539932598        0.52507154508139      -10.35196140989860
H            6.20156835400774       -0.19152945597339      -11.75658423858269
H            7.11748603813419        0.04120676405327      -10.27066098839770
H            5.65021599204607       -2.41412682389483      -12.15220306735624
H            4.55502503082171       -4.58591894448734      -12.61471616807800
H            4.27254932307913       -5.72757686139060      -11.30368076332544
H            5.91141621642822       -5.46308350758828      -11.90322279972879
H            4.74650119112167       -5.10523575150863       -8.99462569140649
H            4.15950006539421       -4.04252529483456       -6.77290171279385
H            4.93424557083513       -2.51982203262807       -6.35210242135995
H            5.91048113042444       -3.97086303701410       -6.56174343426951
H            3.12107524894328       -1.37591899032394       -8.49246582699322
H            1.77376219545271       -0.55017208964578       -7.72032974346082
H            3.08015081807510       -1.19818824208204       -6.73386819177172
H            1.81921250161038        1.77018917621352       -7.77399874615779
H            1.84023662598445        4.16721295399155       -8.43980379703006
H            3.34656820955361        5.07802292270395       -8.38027664570288
H            2.55073554097438        4.59362368466676       -6.88123810925865
H            5.45862679474680        3.94861599519296       -7.96883878417140
H            7.50412705293379        2.57714716883771       -8.70269398272257
H            7.58571823311722        0.91142692871704       -8.13858467843658
H            7.54579268969395        2.23065300475708       -6.97174707993402
H            5.76717088107597        0.35016855876517       -5.30075483884864
H            7.25415666329839       -0.11661577860452       -3.40284636494087
H           10.99644502852369       -0.42520378338524       -1.70369518792400
H           12.40148336421080       -0.24003042893208        0.26805800886779
H           13.81500982301123       -0.82450136132663        1.68287427762200
H           13.94451868475706       -1.09168831611433        3.39424580968269
H           12.32678787262019        1.19427414767458        2.12983444267215
H           13.89842722039484        1.38232133276335        2.90653695505177
H           12.48682067836611        0.90849256686413        3.85151124074088
H           10.67476182707052       -2.16116446100936        4.03943909633853
H           12.20856240639819       -1.65731069093915        4.67997592860712
H           11.79281319219402       -4.20250170519689        3.00928721252407
H           12.02644886199429       -4.17111904704561        4.75693889232974
H           13.32740289412412       -3.67742048881604        3.67359045881766
H            9.84958736558687       -2.99347946163452        2.32530312134775
H            8.45840228651144       -3.17365367393666        0.34025177141455
H            7.17581497960492       -0.91687736547664       -0.11110196263076
H            4.77429844603689       -1.17037662513907        0.12605491831738
