55
 energy: -9.425768694349 gnorm: 0.008551641688 xtb: 6.5.0 (97a52f5)
C            1.64464566631635        0.19088514822310        0.79063241550810
C            1.93174341147277       -1.20095988684904        1.31147232489302
N            2.69809964759874       -2.02571062486992        0.36001486695404
C            1.90483763390378       -2.90693868875375       -0.51500538512888
C            1.77864500010731       -2.36552466010836       -1.92200194846560
C            4.09128268919246       -1.88092937412265        0.20866719319136
C            4.81166965045380       -0.94087788941712        0.96159340832664
C            6.15733144774628       -0.77489538483913        0.78257086927374
C            6.86962545327350       -1.51691745527159       -0.16430582328184
C            6.18242878994203       -2.53838496183414       -0.84910286623914
C            4.81102357832398       -2.67886113216970       -0.67171308504188
O            6.83078741352919       -3.44323171781006       -1.67545191645160
C            8.20915796101090       -3.43640602826835       -1.75418725161872
O            8.79953266047117       -4.29634685946220       -2.38801427609657
C            8.97403809977490       -2.36596332850099       -1.08607200294737
C           10.39292317856216       -2.31041462670757       -1.15617888236598
C           11.16541675570826       -3.42218591110570       -1.77034436093196
N           11.09866929302248       -1.30107947856158       -0.68743270207046
C           10.41917313846672       -0.30807608366392       -0.15891563654035
C            9.06768316090565       -0.23880723857329        0.00471134989191
C            8.67750882903381        1.04142825480568        0.39281849728318
C            7.51442281145251        1.67413510432901        0.28510426411438
N           15.52322690287720       -2.75878395235503        1.38524466794386
N           14.76880326099727       -2.24894877114857        0.55222199001819
C           15.04088607151547       -1.62565303096906       -0.56567445075017
C           14.18036440715043       -1.07960893826315       -1.46305546380744
C           14.59339753405509       -0.48638180376193       -2.58517330013040
C           12.69335263557996       -3.92050325451444        1.43140770875411
C           12.69340511445896       -2.84628759235808        2.19398924637102
C           12.54978891837843       -3.05451373509062        3.54483325979866
C            8.28634437044626       -1.35437011401027       -0.41355146370020
H            1.12007129852495        0.80510712364567        1.52528060780628
H            1.03102792487051        0.15282932453380       -0.10907909297595
H            2.56554100930210        0.70713044129574        0.52222403919235
H            0.99854912679688       -1.71940716965102        1.54705969513801
H            2.48186284557299       -1.16565692482573        2.25557862981243
H            0.91602984650645       -3.05050272306715       -0.06890147583027
H            2.36605615835941       -3.89942715319806       -0.50711260161110
H            1.24613762224629       -1.41405980232605       -1.93049860965348
H            1.23816547284978       -3.05162992855411       -2.57707443117671
H            2.75562183894409       -2.18285290836703       -2.37000687749879
H            4.30202908139005       -0.34018379302669        1.69085241581243
H            6.69391333670967       -0.09434503883939        1.41828864239280
H            4.31824282931270       -3.45505903779168       -1.22314189213481
H           11.21400056716909       -3.30247235129958       -2.85315572538170
H           10.70630671313006       -4.38789168274844       -1.55316587230945
H           12.18249788502264       -3.45042482497601       -1.38049063994528
H            7.06787434356972       -5.22551996039346       -2.90992452060957
H           12.02294332663101       -2.37795525705892        0.88570830345785
H           10.37061600668636       -4.28703601112337        1.47541575148031
H           13.12230511873278       -1.12705855856989       -1.24601936769559
H           13.94368710904478       -0.06618244114982       -3.29741536976744
H           12.94884476387642       -5.77949038198570        1.00618486637680
H           13.35721334503651       -3.67308963232118        3.88128252430862
H           11.61940694024574       -3.56303730117259        3.69103974753300
