52
 energy: -10.460121002260 gnorm: 0.000815379491 xtb: 6.5.0 (97a52f5)
C            1.76939890664866       -0.48674060604782       -0.85594425083900
C            2.30031893576469        0.36746874587549        0.27513866546397
N            2.84050705344491       -0.44537443301115        1.38639554754794
C            1.87867638908724       -1.26960077715059        2.14808359091065
C            0.62823344357101       -0.52483617617062        2.56961790499114
C            4.23281295995592       -0.65486595019342        1.53207370482876
C            5.16208001566550        0.35060192714400        1.22568728421665
C            6.50455122246710        0.14353278246199        1.39084619307743
C            7.00728275339398       -1.06886109947244        1.87883272232725
C            6.08980372617009       -2.10704141734851        2.13207900642754
C            4.72893341809323       -1.87465922165256        1.97512019518797
O            6.48657554415004       -3.37907457065061        2.51573105148405
C            7.82838348222155       -3.68466649190699        2.60074511322024
O            8.19334623011013       -4.82224165348624        2.85103047119298
C            8.83636392941393       -2.62308066277229        2.40430515955156
C           10.22774371901987       -2.89684088985940        2.54374219957633
C           10.69069581386154       -4.28285131666609        2.81799705395037
N           11.18168710817418       -1.99194457470731        2.44204457653033
C           10.75656602584289       -0.74089061786813        2.21630116335513
C            9.43431075518866       -0.34683640875331        2.05123728711112
C            9.48535774821592        1.07220447526227        1.93288640927492
N           10.71130588423722        1.51512339299028        1.98984353944107
N           11.50297278792879        0.44351555953743        2.15093602860088
C           12.92784596516762        0.54603044815127        2.27697129367772
C           13.71523306841829       -0.57259881437242        2.50182644307913
C           15.08083170364296       -0.45602816636569        2.62746727515459
C           15.67701903671861        0.78549256023024        2.52933352852041
C           14.90322984124335        1.90710683364092        2.30529995073717
C           13.53657937901127        1.78692007032693        2.18010948551165
C            8.40895156779409       -1.32914895246974        2.10192281916790
H            1.41233454364488        0.11593131641475       -1.69346638262454
H            0.94052664508425       -1.11345375531913       -0.52428254938532
H            2.54520070006109       -1.15469189642209       -1.23371384974453
H            1.52658213822268        1.03185952580731        0.67163222492143
H            3.08755399668105        1.02948188031178       -0.09500115812362
H            2.39565099410860       -1.64403754307158        3.03780446032795
H            1.63132211340571       -2.15024084881130        1.54653440941816
H            0.88359165374336        0.38192393902291        3.11971811716119
H           -0.01080299396547       -1.13220075824489        3.21411269201473
H            0.02815632334717       -0.22714208003320        1.70919581106267
H            4.81155612546018        1.30962791177797        0.88970178766866
H            7.18713651233629        0.91463053979843        1.09354853917994
H            4.06084792232799       -2.69289878720795        2.16345769517219
H           10.38631806199763       -4.95353383428091        2.01409247688900
H           10.25079746621608       -4.65609530773847        3.74340405662525
H           11.77592476733603       -4.31794585061237        2.90946324122513
H            8.64582871605301        1.74596334099114        1.90550709006599
H           13.23906741169703       -1.53216280256745        2.57789119714483
H           15.68289508290119       -1.33196692218175        2.80371827725185
H           16.74591914337134        0.87925464051168        2.62887541481312
H           15.36755824834966        2.87641105555458        2.22924129022502
H           12.91925601299727        2.65101224161216        2.00808374543464
