59
 energy: -12.196807729010 gnorm: 0.000551805155 xtb: 6.5.0 (97a52f5)
C            1.92341311930506       -0.59242379469846        0.21885420706669
C            2.68341850125752        0.68918689085714       -0.05801562298730
N            2.87746020224468        1.55309876874600        1.12645221211509
C            1.69960362777058        1.78715025705386        1.98540796721743
C            1.66981449918584        0.89273420272178        3.20793665526375
C            4.04694729261359        2.32765923507861        1.29308748862795
C            4.97057766940444        2.50590035143681        0.25115163183211
C            6.09328644871099        3.26953227933086        0.42959682681805
C            6.35648786320750        3.89385442519277        1.64733526983945
C            5.44473822128893        3.73482002823761        2.70746048731842
C            4.31083861664681        2.96036279989557        2.50399946731901
O            5.62432233011312        4.31941696129827        3.95788816486577
C            6.73868532011269        5.09652829594966        4.18909034740632
O            6.95511438645075        5.63264431612240        5.26339510595374
C            7.71876372290121        5.29876645965874        3.10995127481219
C            8.82232943220989        6.07822273611249        3.34411780938431
C            9.71800738813050        6.23670533329031        2.29445935867520
C           10.94983288048154        6.95890565520008        2.10733488357357
C           11.67689510870561        7.73727059704980        3.10945919334470
C           12.54358177185637        8.74581105334497        2.69382759813017
C           13.24965515605228        9.49202663722834        3.60968607224088
C           13.11138041701860        9.23974422753296        4.95986346384056
C           12.26974770040688        8.23333729751916        5.38998097754400
C           11.56100658167691        7.48643641025129        4.47645698084933
N           11.36057169756252        6.83185674218664        0.85757343656480
N           10.48249921196863        6.04072925715536        0.22839835036843
C           10.61740757322417        5.68580604275151       -1.15304401638555
C            9.67754513057672        4.89023237015228       -1.78998699331457
C            9.81788197998470        4.56511673191927       -3.11977273213494
C           10.90445854710957        5.03377198212100       -3.83147227904261
C           11.84752983322553        5.82718344191837       -3.20809772830995
C           11.70392709727546        6.15074065737652       -1.87680877553351
C            9.43610111453315        5.63227173639271        1.07159893941214
N            8.37394713801416        4.86712703670913        0.80924463488499
C            7.53507047021417        4.70512915414266        1.83449549010951
H            1.84299674005945       -1.21880580523832       -0.67209922722034
H            0.90870919104102       -0.39399241893739        0.56492180943533
H            2.42217555608768       -1.18280238853439        0.98860510910004
H            2.18254904009651        1.28525641173902       -0.82781281972461
H            3.66918242043218        0.43611158240204       -0.45882319196739
H            0.79631391756787        1.65681741788204        1.38097157989391
H            1.69613307396149        2.84410826526015        2.27215292428099
H            1.58793931898935       -0.15821763729018        2.93063363384067
H            0.82882995587764        1.12587803673523        3.86411194087844
H            2.58317311543465        0.99127249458382        3.79506668880100
H            4.77858509759955        2.06988168002827       -0.71205409603348
H            6.79244405962448        3.40640541639813       -0.37628679253786
H            3.63453510335483        2.85437142206858        3.32921335327846
H            8.95045662358782        6.56027768470971        4.29512464100308
H           12.64815463835792        8.93230910537256        1.63903168629786
H           13.91131395274945       10.27295406032016        3.27247113282943
H           13.66460087765389        9.82333692337660        5.67719011216886
H           12.17145149304333        8.02835754677841        6.44349967596354
H           10.94060796145065        6.67667764669958        4.81475878937570
H            8.83689280964203        4.53440129938330       -1.22529054979969
H            9.08063492722269        3.94674667743707       -3.60470021385166
H           11.01607651916487        4.78114631763716       -4.87307941992043
H           12.69513397713814        6.19410468814211       -3.76301129280910
H           12.42825157841567        6.76910699580624       -1.37648162091966
