52
 energy: -10.439029768929 gnorm: 0.000978548290 xtb: 6.5.0 (97a52f5)
C            3.42744871591994        0.51271915975087        0.12614237727287
C            2.44427915652467       -0.53446771798880       -0.35238476740964
N            2.56123686285661       -0.79654589536720       -1.79893266665385
C            1.46079143831510       -0.28713898075459       -2.63839584102903
C            1.69208575506969        1.13672693492396       -3.09679924757729
C            3.69677563789009       -1.41724405539241       -2.35688322858683
C            4.63865170883846       -2.07164908976031       -1.54932894574923
C            5.74113062562731       -2.67007132013975       -2.09867325478770
C            5.96371339894464       -2.64552451116988       -3.47382535898260
C            5.03458848277172       -1.99506274282276       -4.30661515832770
C            3.92108683867643       -1.39956940959418       -3.72986476876391
O            5.17997619362654       -1.91664702652517       -5.68897718216852
C            6.27955811680040       -2.49086163140840       -6.28968157679966
O            6.47043978365942       -2.44336301796826       -7.49367814557404
C            7.27577096479155       -3.19107430466054       -5.46312618973592
C            8.36098737825070       -3.76972132772675       -6.06887210007461
C            9.27571524560267       -4.41531520141055       -5.24413844609180
C           10.49992001677198       -5.14912579122246       -5.44283276394410
C           11.19740845743090       -5.37697437299909       -6.70776240719111
C           12.07164409636570       -6.45596090047228       -6.81980185617531
C           12.75022185005037       -6.69686571922899       -7.99271508297366
C           12.57604425346190       -5.85852383150054       -9.07563803210347
C           11.72635097543617       -4.77473743711138       -8.97839905442970
C           11.04554646522953       -4.53192742102968       -7.80689166266252
N           10.93282070826204       -5.62752882189103       -4.28422972714731
N           10.07013570968487       -5.22204594741672       -3.35681840889551
C           10.20573533546671       -5.52073014092144       -1.94028305194127
C            9.02064352980515       -4.46278855615488       -3.87434279064337
N            7.97914555330853       -3.90889011011645       -3.24757188395705
C            7.12508196696660       -3.27643820531486       -4.05286474476160
H            3.33938124921568        0.69930155206762        1.19836321289380
H            3.27029365146907        1.46120634488545       -0.38871008875670
H            4.45637945694680        0.21183846370613       -0.07360583266720
H            1.41824347203317       -0.22075672818249       -0.13462695236490
H            2.57569088437135       -1.48091794307021        0.18134899045550
H            0.52580349329962       -0.36708626974487       -2.07393634698395
H            1.33472932625281       -0.96476832463402       -3.48890495739802
H            1.73574514367348        1.82035883566753       -2.24810818350621
H            0.90030652887119        1.48752492516842       -3.76191499827768
H            2.63917026067081        1.23011867223035       -3.62962702039718
H            4.48732682589456       -2.11757197550232       -0.48637312667838
H            6.45820811889284       -3.17407782864256       -1.47443313855666
H            3.23514617554494       -0.90157588738659       -4.38667752601983
H            8.46040116598205       -3.73952678008394       -7.13763230561409
H           12.20579973235440       -7.10113482917527       -5.96886023325494
H           13.41923860043664       -7.53862264494659       -8.06479136528709
H           13.10769616533177       -6.04652838364232       -9.99384481086883
H           11.59899626097297       -4.11370598305773       -9.82006494153139
H           10.42052088833147       -3.66173703130114       -7.72366391730762
H           11.05331330122710       -6.18384624022849       -1.78538288252190
H            9.30192996717291       -6.00442052920388       -1.57722999144588
H           10.36514410863419       -4.60060402149894       -1.38315761603647
