52
 energy: -8.974403553329 gnorm: 0.007087775877 xtb: 6.5.0 (97a52f5)
C            2.51588777420936        0.06172395316968        0.36311283973260
C            3.45688066815074       -0.98240586461819       -0.20589706371506
N            3.54759120302215       -0.97432853840553       -1.68183279037501
C            2.26868778857496       -0.96193120596865       -2.42114234409542
C            1.87711963813956        0.41927464877683       -2.90776313634351
C            4.76184031252633       -1.22915045362611       -2.35839788560668
C            5.90074284191420       -1.70730278244178       -1.69055211679474
C            7.05986392484630       -1.96626011067213       -2.37319137745202
C            7.14196375594160       -1.76874525698141       -3.75075521889817
C            6.01432587112408       -1.29573792207762       -4.44658072319186
C            4.85264669634476       -1.03652015922135       -3.73342805436884
O            6.00373866901796       -1.08197682506986       -5.82323256756114
C            7.14192507124868       -1.34259988336988       -6.55750275078798
O            7.19391191994711       -1.15159941504139       -7.76143150360069
C            8.33581540646412       -1.87081144020445       -5.88116123215091
C            9.45959328928902       -2.17913361776298       -6.60051456479642
C           10.55270319732262       -2.68482084114132       -5.90636228297632
C           11.77664198467538       -3.04965654163134       -6.44999651416196
C           12.12446769511498       -2.99552421172663       -7.72787437179114
N            8.92525441382566       -7.19261813836428       -0.95809509365761
N            8.54738422045961       -6.33055753775493       -1.75547051921390
C            7.40947792859238       -6.18486411525372       -2.38928940327789
C            7.03815152770460       -5.20885024953940       -3.25607519389696
C            5.83733581739990       -5.16770862821071       -3.84149372452263
C           10.19779086953966       -4.44529365546571       -0.64427405954089
C           10.90989572700696       -5.00746828503829       -1.60311644012163
C           12.21100941156372       -5.32896423958749       -1.29354434585311
C           10.44029900822235       -2.84975216462385       -4.54882703267582
N            9.38951093279666       -2.57735759643150       -3.82364686723260
C            8.34685775003161       -2.07795424353285       -4.48154058771056
H            2.50756953402035        0.05076049513903        1.45519492205239
H            1.48884426196044       -0.09619401618605        0.03196411330366
H            2.81042540624232        1.06404968167352        0.04779966803093
H            3.16161725608666       -1.99028281078792        0.10536366333860
H            4.45802935458903       -0.81715158156822        0.20198298305055
H            1.49096122970182       -1.38532258992168       -1.77682007213317
H            2.35393147126314       -1.66361265033686       -3.25755342375065
H            1.72032056243287        1.10482489702546       -2.07475888547557
H            0.95628542525728        0.40069830879651       -3.49440207897062
H            2.65675169119053        0.85876923101873       -3.53083993014948
H            5.85670832139880       -1.91291243608617       -0.63686530594840
H            7.92306697992535       -2.35351199643327       -1.85860666085028
H            4.00892986346217       -0.67175228127515       -4.28518788574585
H            9.48656089821162       -2.03337920865157       -7.66529662932980
H            8.05159589790955       -0.24725021443281       -9.37436508412044
H            5.18502613970924       -0.57486391392327       -7.76867310522648
H           10.18779525380505       -3.80906908664333       -2.28567868627576
H            7.75116487890057       -4.42912775181258       -3.47203542372625
H            5.52998911507275       -4.41013257082868       -4.50352095847071
H            9.61246275656373       -3.91909760063510        1.12212256198230
H           12.22476838507087       -5.84965951557149       -0.35154026366910
H           12.77228000335893       -4.41687706743406       -1.21002658671598
