51
 energy: -6.826855698173 gnorm: 0.116819617314 xtb: 6.5.0 (97a52f5)
Br          -1.75541144362386        1.19082706311115       -0.85667005625296
C           -0.09538914949423        0.72339763461676       -0.20927460583667
C            0.71187556602942        1.56055392391132        0.41650239664133
C            1.95022572915091        1.19767222479740        0.88499127365992
C            2.48513793587031        0.01253910943305        0.75162114143904
C            3.63338356116853       -0.00576834604947        1.35943706780177
C            4.46542710339240       -1.04964808940716        1.47868129694425
C            4.36201044091504       -2.25300450813352        0.95245328073754
C            3.43645382743593       -2.72628108064074        0.07524158169645
C            3.30927115836836       -3.99914017694462       -0.32560494971013
C            4.04160084002422       -5.01373655207139        0.08654364921943
Br           5.31841364548244       -4.73941391922219        1.26177966870422
C            6.31406426536919       -6.10320961045934        1.88207447529223
C            6.11263712986216       -7.32835474254042        1.46587953172544
C           10.30844279515293       -1.01758481643666       -0.63772595426966
C           10.23809278863928       -2.27249727883850       -0.70757065840052
C            9.23758308125585       -2.78204444194745       -0.02209622977226
C            8.19950869580861       -2.24641095753585        0.64104513710580
C            7.65706606173301       -1.05983766815287        0.58437243649680
C            7.66177375225133        0.04838164802814       -0.22990313706324
C            6.12352356437284       -0.06745995872711        4.31176513237590
C            6.91290874423467        0.74878279108156        3.62338889708311
C            8.04348652236629        1.30759612614412        4.06386936826781
N            8.85563607645607        2.11218350310125        3.45142996765293
C            9.94664921417513        2.62559314149610        3.94168613315679
C           10.81661022917106        3.45768597965933        3.37397591013827
C           11.89910858766359        3.94310904077636        3.92698988010903
C           13.74176798204564        1.30884087848593        2.55822967076189
C           12.89701774360329        0.35623997949782        2.16659154817546
C           11.89571179183722       -0.15132590712155        2.88193645993315
N           11.05481959980712       -1.08453723461514        2.55237671868825
C           10.11439836699936       -1.54951643954617        3.23789303750024
O            2.94898040663398        4.59127784706102        1.48148142668506
C            0.08303468276918       -2.63102489583942       -1.40978692606347
C            1.60370941331179       -0.48310219866063       -2.50306303340943
H            0.38683987863576        2.57761403884520        0.56995151549970
H            2.13612811142607        1.11406277521429       -3.13706128927215
H            2.22040714710192       -0.28335121441879       -0.84834638299281
H            0.87368311443663       -0.99664664216346       -4.07004425669792
H            7.08591271049968       -5.88960277886559        2.59563700310586
H            5.73872613041032       -2.94470357223701        3.73706188379185
H            5.71224446459317       -0.93161529982582       -1.47197664133718
H            9.65437032189339       -2.50109249480784       -2.49777807510133
H           11.68098170952143       -3.24298629640294       -0.72600671989371
H            3.60293407724994        2.06849005955524        3.25537462920024
H           12.54879275815187        4.59997474115833        3.42448540804847
H           12.93144014579547        3.25714233075876        6.74266619536491
H           16.68671350439064        2.62957552646550        3.39621165581623
H           15.06311342062501        0.80348040274422       -0.54964178964221
H            1.41420244870713       -1.30550198503501        1.24694451453155
H            0.62920951246487       -1.85665210115789       -1.79910940765605
