17
 energy: -2.525223035245 gnorm: 0.000603307715 xtb: 6.5.0 (97a52f5)
C           -1.51024883830673        0.02179926344980       -0.21098314159335
C           -0.73998694398871        1.27824047280528        0.23160835357708
C            0.71275216394744        1.21863773284922       -0.25213476533127
N            1.36695355523631       -0.01833375278169        0.18946527611821
C            0.67835676269272       -1.23590987279055       -0.25516022536278
C           -0.77521447474439       -1.25648543897076        0.22897268875765
H           -1.61699766373978        0.02441811321358       -1.30314669296189
H           -2.53643244891400        0.03564536692330        0.18331240830921
H           -0.75658513615149        1.35254727171290        1.32593520570775
H           -1.23314535294027        2.18983283854289       -0.13381043452005
H            1.29190475988218        2.08642178724186        0.08951140519920
H            0.74927775063159        1.24713852121176       -1.34667609143772
H            1.42141334266528       -0.02642089892373        1.21229039676750
H            1.23359435176004       -2.12085926643139        0.08220442915697
H            0.71326248417026       -1.26166944895925       -1.34986119506027
H           -0.79352004987243       -1.33258732728696        1.32315041340627
H           -1.29352426232803       -2.15326536180625       -0.13832803073248
