49
 energy: -10.001138772716 gnorm: 0.000842927220 xtb: 6.5.0 (97a52f5)
C            1.82782133281095        0.39973061550577       -0.77985311614997
C            2.31154201184690       -0.10315084256397        0.56317827004651
N            2.86824011858897       -1.47054655114115        0.48177586439525
C            1.92513969464936       -2.56418229627708        0.16551954629349
C            0.65882942786849       -2.54451010532559        0.99732323926088
C            4.26529791558605       -1.68604770756397        0.40491303740643
C            5.16986139963745       -0.88923360974815        1.12238486447522
C            6.51672976402908       -1.12063703541227        1.06037816964541
C            7.05097685577538       -2.15800093501302        0.28758271787152
C            6.15528724316525       -2.94447254360535       -0.46964780028475
C            4.78997026542942       -2.70087470809717       -0.38511986582585
O            6.56652088847589       -3.96059964395148       -1.32328235230728
C            7.90914906607740       -4.22158834620487       -1.46732806811073
O            8.33430515213759       -5.07521011262773       -2.23043774769709
C            8.87730572016032       -3.45801316127585       -0.67215283742095
C           10.24215946693963       -3.76130490903182       -0.79978144878931
N           11.22898550424785       -3.19787475864130       -0.15401050808421
C           10.82827766676141       -2.25234402238441        0.71182885345230
C            9.51170726571828       -1.85231260633981        0.94495406545845
C            9.60565106286784       -0.87733416415551        1.97947366629928
N           10.84212541874839       -0.67737388245739        2.34359942312223
N           11.60367386053135       -1.48749706467697        1.59339835055665
C           13.02754970720622       -1.56866765112597        1.74350987025354
C           13.78124114681016       -2.47001734771736        1.00766767956949
C           15.14657426538622       -2.53758431359952        1.16681242914412
C           15.77669616191381       -1.70104275623528        2.06646061656384
C           15.03666473008808       -0.79837116478412        2.80434232135082
C           13.67011099710130       -0.73360530227809        2.64328121231146
C            8.45921043558466       -2.46189860371483        0.20387515376489
H            1.45863630957204        1.42582809806437       -0.72610621211579
H            1.01876331959995       -0.21993084387149       -1.16795811841661
H            2.63315981680436        0.37353922701755       -1.51524292232759
H            1.50850790365242       -0.09497898997037        1.30603838828820
H            3.07750958573628        0.56803596240961        0.95984880872122
H            2.45093826352910       -3.51078946950798        0.32755415049596
H            1.69711621303888       -2.52230913351238       -0.90417529632950
H            0.89445254959984       -2.53433641958022        2.06239822716866
H            0.03133079913830       -3.41719661126723        0.80520654439107
H            0.05404434669281       -1.66141926391037        0.78898860567840
H            4.79391504765568       -0.11156404578734        1.76225932386976
H            7.17590917132510       -0.47331045887344        1.60175823601540
H            4.14036613785786       -3.30550601891952       -0.98827731761800
H           10.50648622866808       -4.54017406525463       -1.49912662282573
H            8.79160013137415       -0.37538513781607        2.47266426912979
H           13.27988823810509       -3.11417115463381        0.30969355908564
H           15.72246273910464       -3.24217373310433        0.58977476375728
H           16.84557878736070       -1.75254272161153        2.19300359249297
H           15.52779546013017       -0.14479253985867        3.50618887399313
H           13.07849440491898       -0.03683714955366        3.21068353996970
