44
 energy: -8.780624447343 gnorm: 0.000342985067 xtb: 6.5.0 (97a52f5)
C            1.61458374840953        0.87726698239405       -0.13276795167395
C            2.47601553553259       -0.30721903545003        0.25346842878132
N            3.02728413310532       -1.02891104302165       -0.91345532262379
C            2.07038016034293       -1.50739320173521       -1.93402795822377
C            0.98436072709448       -2.39226245744075       -1.35843747563896
C            4.41489093930292       -1.27335578843813       -1.03475422729655
C            5.03372540394501       -1.33555469546874       -2.29801608083583
C            6.37537393064431       -1.56233288656933       -2.41395120501966
C            7.17281462294460       -1.74335202168508       -1.27466113709968
C            8.56323436829041       -1.97670826751735       -1.34985675483634
C            9.31047646636546       -2.14831357049660       -0.23417569330130
C           10.74381268972497       -2.38731450539668       -0.36996724719681
C           11.63322775707799       -2.60343141409537        0.67395455181540
N           12.86897658206659       -2.78971858951596        0.12085468701369
C           14.14346344412635       -3.04469582903102        0.61758233207523
C           15.18440798498713       -3.17373397529627       -0.23435359633909
C           14.99431572114894       -3.05191450418008       -1.63065986573246
C           13.76426723113588       -2.80512959829341       -2.14706830924757
C           12.67059278334996       -2.67152904738549       -1.26333906615576
N           11.39287189049591       -2.43195904147817       -1.55402852722516
C            8.66944449347629       -2.09506815254544        1.08445395222129
O            9.35428151368917       -2.25410257790361        2.08566160552969
O            7.30986795837584       -1.86687645988431        1.16297436977330
C            6.57498181106494       -1.68914495072786        0.00011355360796
C            5.20866588825304       -1.45301123974947        0.09260015702294
H            1.27023942236643        1.43531615074466        0.74031842521829
H            0.73016416501758        0.56559022485499       -0.68913500051410
H            2.16917537426270        1.56804372810745       -0.76953311002222
H            1.92216773994477       -1.02094999412248        0.87128480935319
H            3.31252069444384        0.03641528689525        0.86944128992435
H            2.62797710577102       -2.06192542307832       -2.69452365455491
H            1.64842220415739       -0.63768820560998       -2.44709740999076
H            1.41749453042722       -3.24162890034753       -0.82822061010216
H            0.32357743402534       -2.78677680219588       -2.13301274847942
H            0.36264311826981       -1.85098375605820       -0.64473482067758
H            4.44440141058367       -1.15969185771488       -3.17998392831628
H            6.83869700305068       -1.59739958066705       -3.38477814792141
H            9.04208173807635       -2.01967660029223       -2.31076211659677
H           11.38534196494733       -2.62024188116686        1.72120149903515
H           14.26669889341714       -3.13401621110181        1.68183921299159
H           16.17136200703078       -3.37115515748497        0.14957777002323
H           15.84040077441234       -3.15712763694984       -2.28953307157377
H           13.60144367390574       -2.70937911275688       -3.20552327196512
H            4.76703296093864       -1.45216840014359        1.07046166477396
