79
 energy: -16.428270780681 gnorm: 0.000344808154 xtb: 6.5.0 (97a52f5)
C            3.22710356347281        0.53803085644599       -1.04447149229644
C            4.31164659031397        0.41524559147211        0.00396431423810
N            3.76317435930144        0.43222772534025        1.37550384854516
C            3.37789161112278       -0.77097073794831        1.97946213210922
C            3.35483270314714       -2.00303280565060        1.24130567447135
C            2.90507320615303       -3.19339822184175        1.70390349590057
C            2.89316369975123       -4.39578858191419        0.93993743079052
C            3.40670151383870       -4.59613526098909       -0.31878080462133
C            3.23365627831402       -5.90683328381079       -0.80610033840041
C            2.57794190668808       -6.74698900927087        0.05805066961266
C            2.23922166781668       -8.14034568259670       -0.16511979954645
C            2.69774586015010       -8.84545545905407       -1.28324963947818
C            2.35195722372906      -10.15891780678014       -1.47800457288910
C            1.52763572518157      -10.82663818193597       -0.57152759842726
N            1.14512216203928      -12.18331037629764       -0.78889328415021
C            2.01278166857402      -13.08716393610701       -1.49249475072986
C            3.38496693779746      -13.08242752888301       -1.26370652578500
C            4.20763716284629      -13.95878649552163       -1.92613524223217
C            3.69530141285032      -14.87941715907696       -2.84301293000831
O            4.60624412919782      -15.73980036842060       -3.47151140274136
C            4.02999327673983      -16.66057697567054       -4.36462787045231
C            2.31658360284084      -14.88035796458903       -3.06775849509948
C            1.49527128653664      -14.00218458969267       -2.40414034517047
C           -0.13133538747976      -12.65929844469589       -0.32991749876317
C           -1.27531153338075      -11.88155326595786       -0.47786648279689
C           -2.49593107697532      -12.34540601799824       -0.05603818761986
C           -2.62697741000029      -13.60612913712550        0.53033188916471
O           -3.91147837309346      -14.00062341845564        0.92952224004292
C           -3.98031583722281      -15.26972863291390        1.53103237831853
C           -1.47502467789236      -14.38315636354609        0.67523742644517
C           -0.25427709939204      -13.91718872757385        0.25197700707837
C            1.07297540278665      -10.12824065536218        0.54711981420490
C            1.42464693699765       -8.81809314318853        0.74656441052032
S            2.18247020657326       -5.87923351816299        1.51960363121473
C            3.01301400159613       -0.74822700371049        3.30394190356052
C            2.96989243615632        0.42208143719747        4.08510264381039
C            2.61599703141123        0.28355569512396        5.43488864678797
C            2.52573211314473        1.31736163497890        6.34269205409805
N            2.45750025385537        2.22479633258943        7.07417713522461
C            2.33218070255406       -0.97948969030219        5.91720776302484
N            2.10669262936485       -2.07839303192643        6.24072395108152
C            3.27841219997917        1.68460005352215        3.42171441798951
C            3.20663189411392        2.92403749721898        4.06741439261365
C            3.46765398203902        4.09714511730878        3.40911080720327
C            3.80680773274910        4.07487703662861        2.06961951586165
C            3.89400097925310        2.87885630548041        1.40652049273743
C            3.64970145858307        1.66241399574018        2.05695520841326
H            3.63054338652097        0.52128732712880       -2.05879627965039
H            2.66840834235679        1.46691658727570       -0.92375053151224
H            2.50562366346271       -0.27553415730194       -0.95996416731079
H            5.05266796676854        1.21458390534805       -0.09106504747489
H            4.89924730088099       -0.49778969659239       -0.13093136691644
H            3.68823476571685       -1.97617404068693        0.22260178652095
H            2.50598940128288       -3.26327038194078        2.69885455710119
H            3.90358447397926       -3.82380690713422       -0.88396880500954
H            3.57535230456848       -6.21434282818103       -1.78156708358759
H            3.33244270817418       -8.35037426449306       -1.99627362053625
H            2.69860411047597      -10.68736232280875       -2.34856463339645
H            3.79030520646661      -12.38777083377116       -0.54907609977922
H            5.26831643196994      -13.95720655038243       -1.74817822382794
H            4.82477751239910      -17.27999593352678       -4.78177414828023
H            3.53242614232880      -16.12868290729287       -5.17641367038712
H            3.32391696539838      -17.30031063847602       -3.83379561937001
H            1.89061936566729      -15.57547737158732       -3.76777722169128
H            0.43447140772121      -14.00747181653870       -2.58405195937397
H           -1.18907855495329      -10.91337062905829       -0.93910403295119
H           -3.38099873100615      -11.74533431346360       -0.17137402010837
H           -5.01691620762047      -15.46315250276294        1.80935020671306
H           -3.36275452499089      -15.28821154552843        2.42982494851375
H           -3.65460901816506      -16.03361211629565        0.82398476555589
H           -1.54227948023343      -15.35808375696190        1.12204035947975
H            0.62936281225608      -14.51984410448266        0.36914124806522
H            0.44900289069251      -10.63833055788668        1.25970950747849
H            1.06942747434091       -8.28984291620644        1.61371920068654
H            2.76029056495187       -1.67122546552402        3.78924105381164
H            2.93944730828722        2.97465330899969        5.10494469899445
H            3.40224890465293        5.03705067221136        3.93271440920818
H            3.99924582228659        4.99838590419527        1.54834846703593
H            4.13200316923610        2.88674305160203        0.35881328813584
