71
 energy: -15.245550808090 gnorm: 0.000584802526 xtb: 6.5.0 (97a52f5)
C            3.17272102565004        0.77453502893100       -0.63217747620432
C            4.07013443667749       -0.36245598968855       -0.19366978741246
N            3.50586767371486       -1.10703552662698        0.95063221377066
C            2.63620091001525       -2.17664088022499        0.71473270491213
C            2.14736571720494       -2.46879910128305       -0.60632268207950
C            1.18616384800615       -3.37228332459886       -0.90492176254202
C            0.71648775920081       -3.63856773070263       -2.22472550437043
C            1.19516038065188       -3.12594853287492       -3.40556169449841
C            0.50983914091803       -3.58544777718401       -4.54846063278730
C           -0.51527315783109       -4.45570784849303       -4.27750696311887
C           -1.40771433369653       -5.08228767173029       -5.23662943953418
C           -1.23484754154570       -4.93463674033434       -6.61660523497073
C           -2.10358372077425       -5.52241544941768       -7.50207858378392
C           -3.18520206656885       -6.27782492274767       -7.05068783298545
N           -4.10788581719359       -6.86376945983980       -7.97471161604907
C           -3.64528353419721       -7.36809160175129       -9.23615175431141
C           -2.41813779501125       -8.01851246959661       -9.33445844381593
C           -1.97823493037917       -8.50833943342109      -10.54315798391547
C           -2.75439525559977       -8.35753572948197      -11.67529219309536
C           -3.97352197819297       -7.71398769000060      -11.59427545951530
C           -4.41588542736190       -7.22358743261665      -10.38669690731703
C           -5.50326572775227       -6.93438633128297       -7.64594454837280
C           -6.12102472028799       -5.90125238245205       -6.94598531916964
C           -7.45888560757403       -5.96840849364569       -6.63026521296569
C           -8.20456231631041       -7.06739178489398       -7.00828118395865
C           -7.60687196043768       -8.09975108441815       -7.70404137807173
C           -6.26891780287221       -8.03514181009337       -8.02068120989886
C           -3.35604887720010       -6.43484476677607       -5.67616991167811
C           -2.48514735855075       -5.85232082465369       -4.79086972264443
S           -0.61420500179108       -4.71558202724629       -2.55515521332235
C            2.24723820959394       -2.94878314269128        1.78235820553561
C            2.64187394566435       -2.70407783299462        3.11141729009384
C            2.20142996783294       -3.60507089911356        4.09151951767067
C            2.48847646441643       -3.51947965868915        5.43738149032877
N            2.75311193930747       -3.40124346125150        6.56846781660178
C            1.41357952921225       -4.67097756578045        3.70205414941045
N            0.74912393710392       -5.53846913689549        3.29066522551044
C            3.45763337637270       -1.52072367245582        3.36184588569953
C            3.84570074170976       -1.11848243508771        4.64510488620950
C            4.57632980041568        0.02146784320401        4.85388595600653
C            4.94470149817688        0.81053225190427        3.78012707501922
C            4.58988142504014        0.44354204801461        2.50879547288697
C            3.85678343177277       -0.72508404297887        2.26250683024056
H            3.58887501479284        1.32548444909338       -1.47797393014104
H            3.01308123312645        1.48363389333958        0.18107239600628
H            2.18871613515296        0.40719801014149       -0.92632943596535
H            5.06838418966400       -0.00355163363538        0.07436665209899
H            4.25932599747280       -1.06353363985380       -1.01218966534135
H            2.54996189509157       -1.90149245358730       -1.42230907860447
H            0.70778919978997       -3.92206878296249       -0.11550116452469
H            2.02399510792477       -2.43806775295101       -3.45836631042686
H            0.76621359547472       -3.26807925862435       -5.54665859516259
H           -0.40943868027858       -4.35344270918924       -6.98688079445915
H           -1.97068076927203       -5.39164745854637       -8.56161565587001
H           -1.82347723478239       -8.14254320331633       -8.44647378587955
H           -1.02778585283222       -9.01236837807251      -10.60540652833920
H           -2.40951127159538       -8.74215773646960      -12.62099893835586
H           -4.57879966532022       -7.59476304911989      -12.47784208310490
H           -5.36043355456767       -6.71303571272098      -10.31866537413705
H           -5.53688076517878       -5.04315526714916       -6.66316340033797
H           -7.92464892940029       -5.16191338816844       -6.08811885890613
H           -9.25188233808495       -7.11948570437001       -6.76002538013058
H           -8.18813503974050       -8.95831186623131       -7.99768927497176
H           -5.79469682491102       -8.84090050025419       -8.55295498298358
H           -4.17931317141179       -7.02865561899293       -5.31978081951950
H           -2.62664268317558       -5.97880991138360       -3.73208838171052
H            1.62579599094627       -3.80539868958188        1.60450856082747
H            3.56846291419980       -1.70610574410290        5.49849863702818
H            4.85730690605825        0.30784538986741        5.85435727347571
H            5.50686897814917        1.71508762817468        3.94581681921201
H            4.86184939518490        1.08604858271294        1.69165303276463
