42
 energy: -8.734818270424 gnorm: 0.000987377019 xtb: 6.5.0 (97a52f5)
C            2.13250243869844        0.84593433282917       -0.73383917250202
C            2.33397152534178        0.06477897433388        0.54700774188990
N            2.88170481069291       -1.28383217419652        0.29493773764230
C            2.00378300613666       -2.35878446713264        0.14036231082684
C            0.57633054964064       -2.15881447127823        0.09035949613552
C           -0.35173777643424       -3.13192109808728        0.19733564521601
C           -1.76446508436609       -2.91125468460195        0.13186904575873
C           -2.41878821763450       -1.72193938907468       -0.03685179178743
C           -3.83147190961219       -1.84554259536266       -0.06027962236869
C           -4.27738965181672       -3.11913332130162        0.08686799209144
C           -5.69146367720802       -3.53703353970224        0.10062221454696
S           -2.92972807022273       -4.20237801362317        0.26651480263887
C            2.52814696355389       -3.62164748388325        0.02775116918674
C            3.90877916278224       -3.90092285167766        0.04070179475494
C            4.29571299424628       -5.24398109015649       -0.06096900280459
C            5.59732962032110       -5.69814946482581       -0.06468051555162
N            6.71533342940630       -6.03445457988282       -0.06913528100163
C            3.31064546729623       -6.20701440566879       -0.16307331381384
N            2.41581692575997       -6.95187553762090       -0.24765224041105
C            4.82103568270399       -2.76743109731416        0.14215188368112
C            6.21401118349173       -2.90475046600075        0.12475789118426
C            7.04686184606173       -1.81989728105390        0.19795342088335
C            6.51487193016120       -0.54706596315341        0.28663616845288
C            5.15635290433363       -0.37418465224383        0.30992837123901
C            4.27926223879259       -1.46525080541031        0.24968946634306
H            1.72451196418328        1.84142972246660       -0.54902443793767
H            1.45112873866014        0.32572848858926       -1.40814402746873
H            3.07306124751009        0.96773198870252       -1.27214702904656
H            1.39815188172094       -0.03379219773553        1.10573744538304
H            2.99747834165361        0.59237391880966        1.23889792665326
H            0.22283340439282       -1.15788920488400       -0.06500008409649
H           -0.04027419063799       -4.14665740383828        0.36274310734220
H           -1.91344467838842       -0.77541995030526       -0.14207162548603
H           -4.49771479867525       -1.00521913321961       -0.18403578397434
H           -6.22633393885685       -3.13065008860925       -0.75879631164838
H           -6.19065301110523       -3.19174834201486        1.00712832179015
H           -5.77294641664055       -4.62440576042710        0.06500450232528
H            1.85886416750808       -4.45111219168745       -0.09842654440677
H            6.65717396746644       -3.87864312550357        0.05036311767435
H            8.11586513893549       -1.95695032184973        0.18162371498324
H            7.17038854997369        0.30708737713830        0.33552704463450
H            4.76424134017200        0.62497235046720        0.35743445105097
