50
 energy: -10.229666984939 gnorm: 0.000436771097 xtb: 6.5.0 (97a52f5)
C            1.01566670110546       -0.44699332332499        0.36802639958914
C            2.44732503713907        0.04016075111425        0.30613999330951
N            2.77850365455275        0.63054024427668       -1.00673088384805
C            3.35719457926084       -0.17653578308699       -1.98966215820867
C            3.51604351192017       -1.59734748569679       -1.79736636424744
C            4.34866495115124       -2.38244772811944       -2.51335943417646
C            4.49929033262218       -3.80970781404969       -2.35575515770962
C            3.71173958858454       -4.56419688867247       -1.47734225960174
C            3.88635026946797       -5.91913937567938       -1.35853495394055
C            4.85835803046361       -6.59423253058579       -2.10636274122630
N            5.04294735478744       -7.98004336592486       -1.97677377105064
C            4.16988570368034       -8.79308474162783       -1.13124875920210
C            6.12006042695932       -8.67716658951892       -2.67880890889924
C            5.64264162315131       -5.83985387399567       -2.98651433910450
C            5.46620345217902       -4.48631369201398       -3.10911390907210
C            3.77303219808482        0.40919022312462       -3.15873125397679
C            3.63660798220015        1.78291068659856       -3.43863428391592
C            4.12476209671393        2.24011945906225       -4.67023885179543
C            4.06843958979885        3.54496978926228       -5.11290146066746
N            3.99448390461888        4.66123840925358       -5.44679296948950
C            4.71475722163534        1.32779454206624       -5.52411213316918
N            5.19579199351139        0.49411412967261       -6.18483385273282
C            2.98369213990715        2.61086606846491       -2.43022996191389
C            2.75696641145940        3.98172334441450       -2.59859295133056
C            2.12380738581055        4.73137209886218       -1.64254126527439
C            1.68529247684418        4.13311137795115       -0.47614448241769
C            1.89251328429765        2.79378001268541       -0.27512405956304
C            2.54826006522640        2.00415294401848       -1.22853250406812
H            0.77169817041324       -0.88630346771689        1.33731997734862
H            0.82400192651004       -1.20067951814837       -0.39664763010811
H            0.31461412656466        0.36857058983950        0.18681002254049
H            3.15256918551338       -0.77018535795888        0.51553591235496
H            2.65471311126898        0.77790404805294        1.08725651349131
H            2.91709287025353       -2.05954793413661       -1.03708377092488
H            4.98123258969928       -1.92183680885895       -3.24989873249576
H            2.95355901158414       -4.07784144057758       -0.89068300696452
H            3.26996995221113       -6.47499187795616       -0.67500027699229
H            3.13305555043306       -8.66630936485045       -1.43643402982485
H            4.27500687963526       -8.49473071466925       -0.09010537028548
H            4.41807195108857       -9.84925667124567       -1.21033168112967
H            5.95942482908618       -8.62685258848975       -3.75386416030506
H            6.16507076125829       -9.72456184843019       -2.38860175557183
H            7.07783052866770       -8.21951548542103       -2.43903071526704
H            6.39141266121540       -6.33266316710331       -3.58025034505823
H            6.07859456803855       -3.92501634621691       -3.79388678449280
H            4.20500038497534       -0.21013217870728       -3.92185457823911
H            3.08016187378690        4.47302522310652       -3.49561541902873
H            1.96350783379985        5.78545733745728       -1.80096143760237
H            1.17971717234537        4.72123569281435        0.27230958775270
H            1.52641209451393        2.34482099068379        0.62975495850480
