13
 energy: -1.929406990662 gnorm: 0.000587679654 xtb: 6.5.0 (97a52f5)
C           -1.12003869278565        0.76110125198169        0.16414814889436
C           -1.13948723653540       -0.73803627208785       -0.16470842342160
C            0.31571562359436       -1.17549399349099        0.07462701346119
O            1.16201501446512       -0.01633633128046        0.00271479375541
C            0.34373976705893        1.16120707142895       -0.08527598888665
H           -1.39672543956025        0.93454380450539        1.21016708296529
H           -1.81928762671650        1.33608190261803       -0.45534151913690
H           -1.42792492114843       -0.90398167753936       -1.20877029886811
H           -1.84874759368338       -1.29583230592607        0.45909799764677
H            0.66768473225223       -1.90366713484957       -0.66585389498951
H            0.45163719471625       -1.61521319069480        1.06947503471670
H            0.48714694373310        1.58251543036015       -1.08699781808539
H            0.71500223460967        1.89193144497494        0.64323787194847
