19
 energy: -3.058510565158 gnorm: 0.000802904165 xtb: 6.5.0 (97a52f5)
C            0.99207855745734       -0.11284636657458        0.08265555875432
C            2.45780568113709        0.18893470635160       -0.13245608598176
N            2.91695001120377       -0.25292838709461       -1.44957031879243
C            3.47086722939156        0.64031768676287       -2.48379825539543
C            3.65728733432685       -0.26244176919362       -3.71568738329645
C            3.36702536728379       -1.69990530213957       -3.22237207084755
C            2.80943087741442       -1.58059064185146       -1.82522371411438
O            2.33827975272812       -2.47939501206573       -1.16157634900346
H            0.64829741959918        0.18735675489803        1.07443358598880
H            0.80508015458315       -1.18248531466006       -0.02989404458224
H            0.37595220481738        0.40003627024067       -0.65728328201007
H            3.07518876674363       -0.31893896469993        0.61663174344374
H            2.66412285062050        1.25971046655932       -0.03187065739308
H            4.41722751539723        1.05622860104992       -2.12450378317398
H            2.78075419778395        1.47093256778104       -2.66369186652199
H            4.66420124233503       -0.17095890945269       -4.14147671193433
H            2.95734963324356        0.02098038983367       -4.51109526237897
H            4.28053273763234       -2.30269333880041       -3.18981242436371
H            2.65647846630108       -2.23012343694448       -3.86494867839703
