54
 energy: -11.406210440133 gnorm: 0.000687088279 xtb: 6.5.0 (97a52f5)
C            1.28555924635143       -0.29715569696206        0.55887212984590
C            2.34874735498841       -0.04004417390605       -0.48768718373717
N            3.08073060490979       -1.27028737484366       -0.85188509366735
C            2.35148080817355       -2.41720577253857       -1.28211604162992
C            1.20689207408309       -2.28671558299008       -2.06874678508177
C            0.52733791395846       -3.39352455143857       -2.51804335681554
C            0.96358059295253       -4.67841024329362       -2.19739491028002
C            0.25246351183217       -5.82825682830331       -2.67100989915002
N           -0.78140762970064       -5.74735598786484       -3.43390157886085
N           -1.43607098967884       -6.84014386110034       -3.83838597433141
C           -2.53761134241847       -6.83883900520795       -4.70440704669686
C           -2.95224187314181       -5.63206775823538       -5.24683795568510
C           -4.02825367749682       -5.60550937211288       -6.09380314051572
C           -4.65490956608099       -6.79695817893424       -6.36799580126098
C           -4.17510137348679       -7.94847925936670       -5.78475385183213
N           -3.14145058603160       -8.00431873076703       -4.96755943484883
C            2.11018198030980       -4.81044156467520       -1.40250317196621
C            2.79344701075125       -3.70684073705817       -0.95011976338365
S            4.21198908881890       -3.95455544924370        0.07767991611455
C            5.13610264594583       -2.50142480996021       -0.32818737688839
C            6.50694732565281       -2.55006129003826       -0.23666105677612
C            7.30060517188949       -1.43024918960658       -0.51075893228311
C            8.77051260999458       -1.50039767316253       -0.41121805119575
C            9.51891984793856       -0.39400474643498       -0.00390818257658
C           10.88889168112113       -0.46121033629132        0.08576208144800
C           11.56508007485557       -1.63519295369433       -0.22871338007618
C           12.96132525763887       -1.70118619831891       -0.13856680544203
N           14.12051804912586       -1.75502325740880       -0.06936765492686
C           10.82610252162952       -2.74129768590655       -0.63468476893515
C            9.45597528798869       -2.67633515517397       -0.72361542735998
C            6.65545467422957       -0.25223052164652       -0.88561000495477
C            5.28467147302369       -0.19619179494207       -0.98453719088265
C            4.49629416990134       -1.31347249978765       -0.70893574201339
H            0.76631894339589        0.61743554944382        0.85211748639639
H            1.72549038452832       -0.73412575263221        1.45663773834736
H            0.53563304159243       -1.00184810593513        0.19754624685750
H            3.06769754984814        0.69385510291379       -0.11097020130568
H            1.92284694422019        0.39472617479002       -1.39728342057362
H            0.87000429107471       -1.30385116769292       -2.34532531508911
H           -0.35075052764028       -3.28564754278543       -3.13036758410338
H            0.59746013744917       -6.80464802390301       -2.38299567140301
H           -1.14827559915520       -7.74106305323620       -3.46158001551705
H           -2.41747563295391       -4.73455489659287       -4.99104003169781
H           -4.37180930842462       -4.68165387241442       -6.52948888724538
H           -5.50624300840820       -6.82953734178875       -7.02776323933725
H           -4.66339842915160       -8.88774275326973       -5.99588862070503
H            2.46241868695939       -5.79141767915147       -1.13617172413583
H            6.97188893450529       -3.46737377641852        0.07785029714283
H            9.00965542617885        0.51616180630806        0.26063304934289
H           11.45773705962400        0.39588432771940        0.40384509969489
H           11.34664066998966       -3.65070014673773       -0.88250530400506
H            8.90079272065913       -3.53450692497319       -1.05979193903562
H            7.24537995743396        0.61407005975173       -1.12876473558642
H            4.81155381824161        0.70882625781713       -1.32182179139568
