57
 energy: -11.497601869039 gnorm: 0.000816026986 xtb: 6.5.0 (97a52f5)
C            1.29038405074116        0.12973222508014        0.55039895002741
C            2.25879768890693       -0.11628944800868       -0.58621465168364
N            2.99430829683158        1.10630218021630       -0.96398787139448
C            4.41963594620492        1.11543147435252       -0.90038370987183
C            5.16238311309614       -0.00706740027032       -1.26694214683167
C            6.53676018073491        0.01336016810852       -1.23691156050587
C            7.22562305257422        1.15877730812130       -0.84016434532149
C            8.65814484289595        1.17443324322135       -0.81045442258078
N            9.37787676312806        0.17250891606245       -1.17841073895930
N           10.71367182682931        0.21601936575883       -1.12701964494827
C           11.56327414251273       -0.81077048759166       -1.56135913647374
C           10.99621046166728       -1.94059603346619       -2.13017702420608
C           11.80457330261609       -2.95530021004724       -2.57021484186215
C           13.16147661194599       -2.80116090627452       -2.42189083133076
C           13.63834999117053       -1.64583249615247       -1.84439897035652
N           12.88470748744488       -0.65268057630022       -1.41345665617888
C            6.48010064382846        2.28924259422989       -0.47897489161983
C            5.10582486509185        2.27514019659910       -0.50865010863020
S            4.23603355639347        3.73739064354476       -0.02047436917794
C            2.76234383474597        3.54799895217865       -0.98370724839175
C            2.08358199266652        4.67849335611923       -1.37447970484828
C            0.88732866794190        4.60262971839008       -2.09699456757141
C            0.17192862343896        5.82548640292978       -2.50887447091315
C            0.86823253859249        6.98730484429050       -2.84692668346617
C            0.20115380633880        8.12281549696256       -3.23234484398688
C           -1.19437342131807        8.15755327112646       -3.29811100202801
O           -1.79240927817419        9.35575646364094       -3.70100198843648
C           -3.19835828998962        9.32821086312942       -3.74789644903399
C           -1.89131130496120        6.99489037976957       -2.95776315235874
C           -1.22270215613699        5.85851938551350       -2.57402793767566
C            0.39673158062510        3.33645292934264       -2.41148863465775
C            1.07395896866371        2.20036841906213       -2.03153817096079
C            2.26959855910929        2.27939891144872       -1.31952538949439
H            0.75886159607311       -0.77769557592732        0.84448209029082
H            0.54385648711894        0.87680847526689        0.27814219278226
H            1.81515325145134        0.50977798491876        1.42822059036249
H            1.74823430802990       -0.50432342939355       -1.47287730614430
H            2.98279131911826       -0.88386810681341       -0.29716480999302
H            4.64894817859022       -0.88633212901234       -1.61327944733383
H            7.10350602402537       -0.85459654075291       -1.52534055118044
H            9.15851728533780        2.06419991786330       -0.47429951686670
H           11.15301467505211        1.04182950195151       -0.72610157817050
H            9.92584877743916       -1.99784635362148       -2.21822269957922
H           11.39006423740377       -3.84311819565061       -3.01864545772431
H           13.84020004058636       -3.57022288647516       -2.75229261509718
H           14.70344378198294       -1.51952978270557       -1.72453151977358
H            6.98929737890255        3.18540590440279       -0.17075841978248
H            2.47334273037623        5.63993941181017       -1.09119591056568
H            1.94399444273177        6.98034910071146       -2.82288613135537
H            0.74222326044329        9.01415998057516       -3.49603551511085
H           -3.55287683422507       10.30678196347256       -4.07335208604248
H           -3.59944511022169        9.11947578995946       -2.75559601206419
H           -3.53169069064843        8.57582794397391       -4.46353621941211
H           -2.96533829356055        6.98842110799141       -2.99379053172233
H           -1.77891261793344        4.97939847287740       -2.29865472781789
H           -0.51097449646139        3.25239777214048       -2.98306246434773
H            0.69332932221740        1.23398952135507       -2.30988413761658
