57
 energy: -11.759107748048 gnorm: 0.000786769503 xtb: 6.5.0 (97a52f5)
C            1.03175564508514       -0.19918772019796        0.29090560888489
C            2.53237427712597       -0.04388825624703        0.16648926470939
N            3.25411894174803       -1.26260880444619        0.58230485619362
C            4.14636263842001       -1.89856676761244       -0.33084460398212
C            4.95449010678095       -1.15069495409321       -1.18781905222144
C            5.84653073336444       -1.76542830011510       -2.03452381039920
C            5.96797152834839       -3.15435393098790       -2.05839212723399
C            6.90309091567055       -3.79116933184580       -2.93749570899971
N            7.69975013929021       -3.13715235814003       -3.70868512015482
N            8.55292276958068       -3.76756234911464       -4.52391393767975
C            9.50343342929321       -3.13088546995594       -5.33343213767834
C            9.60409494102461       -1.74937484114001       -5.27343636118158
C           10.52842981332708       -1.10394501100691       -6.05158686721242
C           11.32336363608211       -1.87118435388562       -6.86810396892298
C           11.15445680870671       -3.23804180673323       -6.86448343321102
N           10.27468957874017       -3.88611421758882       -6.12564533342402
C            5.15716345065081       -3.90610849934972       -1.19678164008714
C            4.26421481632311       -3.29674843976535       -0.34826212389684
S            3.25855919067815       -4.31436023249266        0.69265486063973
C            3.03138726025242       -3.21072676516694        2.05743322232253
C            2.84653873254204       -3.74428301534961        3.31040722367425
C            2.62044683564209       -2.92189194811586        4.42287007700954
C            2.42692051246119       -3.47948723594117        5.72834730757754
N            2.20794070182252       -2.76021860284748        6.77320673855866
N            2.04615249355738       -3.31580252963270        7.97941964633731
C            1.80795683992991       -2.60091001427293        9.16112500403695
C            1.70034728399809       -1.22062001335165        9.08833796630332
C            1.47073669066285       -0.49869143944203       10.22961660433617
C            1.35686496680791       -1.19056464110694       11.41101553216356
C            1.47734066469005       -2.56231694727647       11.39069475653059
N            1.69755960985244       -3.28295393284236       10.30806471744182
C            2.58648396370374       -1.54167367711338        4.22756407408504
C            2.77857455628314       -1.00241895812359        2.97763734309385
C            3.01005956116754       -1.81996995365911        1.87131763833745
H            0.49624223466110        0.69036139647127       -0.04699288893869
H            0.73732738770889       -0.39043322553534        1.32346796027368
H            0.68105176844241       -1.04543421260130       -0.30167920244921
H            2.90112813731200        0.79882524904970        0.75944158237076
H            2.79620491195286        0.17961203487334       -0.87165965206011
H            4.90272442416843       -0.07695746760933       -1.15445733916734
H            6.47144289779017       -1.18251392397665       -2.68830228231045
H            6.95327527698337       -4.86483808695948       -2.94785196690914
H            8.51397894625581       -4.78372437602231       -4.56942654105105
H            8.95200375248398       -1.20790359437715       -4.61131636841611
H           10.62900526982655       -0.03129081100338       -6.02322322140822
H           12.06596796923739       -1.41175011225623       -7.49943598705587
H           11.77605064227762       -3.84610261327077       -7.50385043796049
H            5.23171134256425       -4.97933860364023       -1.19784873540763
H            2.86733981820924       -4.81267405696240        3.43438764860396
H            2.46720215761884       -4.54718806381251        5.84497888173829
H            2.13063188556762       -4.32689756338989        8.05934755500583
H            1.80066280208183       -0.74012679430237        8.13132202716775
H            1.38282341693199        0.57502171532668       10.20139688921060
H            1.17601059302499       -0.66927088596900       12.33656433521906
H            1.38879943853995       -3.11145854265854       12.31565664113797
H            2.41418964911236       -0.90521654842280        5.07778944239378
H            2.77557124363099        0.06514440600639        2.84946544405546
