16
 energy: -2.279386161159 gnorm: 0.000768296809 xtb: 6.5.0 (97a52f5)
C            0.93170524416031       -0.04289854696474        0.06596646894757
C            2.44683809177000       -0.03839440990523        0.05775314574221
N            3.00951573121137       -1.36456799408720        0.31366419733463
C            4.47015267811240       -1.44467624870430        0.31922593356403
C            4.96966435561670       -2.84966675189406        0.58773120551220
H            0.51552052975860        0.95427049258468       -0.09435957307745
H            0.54949223005838       -0.41320307181522        1.01848883274728
H            0.53614718275508       -0.69560185409702       -0.71394434754739
H            2.83243190046256        0.64387311222415        0.82467414422296
H            2.83170607785897        0.33858843275658       -0.89836425397505
H            2.61896073943011       -2.03981318807519       -0.35051826603969
H            4.84224116063907       -0.75242191673505        1.08385820199136
H            4.85538654928231       -1.06894434327977       -0.63720318884318
H            4.59459791771152       -3.21947734305360        1.54330357173800
H            6.06046069696445       -2.90112154631274        0.61600854943679
H            4.62579891420817       -3.54280482264130       -0.18172462175426
