9
 energy: -1.220342143850 gnorm: 0.000876018143 xtb: 6.5.0 (97a52f5)
C            0.98390829897165       -0.04971942596864        0.07617130572299
C            2.49826573743492       -0.03133888628515        0.09564385828721
O            3.03013735553352        0.44583563222197        1.31257719106378
H            0.58917687455014       -0.45229204126106       -0.85870697311410
H            0.57833424065470        0.95475722566886        0.20287217158764
H            0.59580809285249       -0.65959188208327        0.89275846511043
H            2.90455539733445        0.57734204864768       -0.72372179239808
H            2.90619804827879       -1.04048492664562       -0.04764170274955
H            2.68101595438934        1.34491225570523        1.50729747648968
