16
 energy: -2.368562458088 gnorm: 0.000553733934 xtb: 6.5.0 (97a52f5)
C            1.54698252523882       -0.00458634182300        0.21992137838969
C            0.78360679036018       -1.26024922368726       -0.22438749387609
C           -0.67147055014132       -1.18603696015866        0.25073587471438
O           -1.31753418898271        0.00244310276922       -0.20152354305471
C           -0.66519349465771        1.18796976196728        0.24933760387894
C            0.78987610983181        1.25396180243245       -0.22677377839716
H            2.57099818941021       -0.00744973278016       -0.17877797617571
H            1.65444658807025       -0.00384529045177        1.31151917728634
H            1.27023247135590       -2.17199253097776        0.14819174630244
H            0.80174951755747       -1.33454885910477       -1.31792478477915
H           -0.73063300976330       -1.20083959524554        1.34489878634312
H           -1.26343042114351       -2.03571659116160       -0.11204951138653
H           -0.72321844394141        1.20293244257637        1.34356086264411
H           -1.25292731535325        2.04090842827913       -0.11256601286392
H            1.28145132748129        2.16419228058743        0.14283689006373
H            0.80722390467726        1.32502730677862       -1.32053921908948
