14
 energy: -1.930980447775 gnorm: 0.000310907595 xtb: 6.5.0 (97a52f5)
C            1.02111133159914        0.00809888281621       -0.08052494841105
C            2.52560167081070       -0.04255079734944       -0.22492543430970
O            2.91610088680244       -0.49006796728885       -1.50079740445898
C            4.27705384419755       -0.51846937973914       -1.58176830963141
O            5.01183039543438       -0.19908745055528       -0.67120921985934
C            4.83583687951369       -0.97211145820181       -2.87510250764151
Cl           4.27694756922688       -2.59925792467092       -3.18401445762183
Cl           4.27695616019641        0.10556777113363       -4.13273877894220
Cl           6.58492153382939       -0.94642342399123       -2.80184969591599
H            0.71298197662014        0.35449034602884        0.90703708234435
H            0.58932225853788       -0.97909133586216       -0.24592619796498
H            0.58932295368750        0.67567583843651       -0.82634243292815
H            2.98588090872615       -0.72258850945227        0.50615671472120
H            2.98588163081777        0.94516540869591       -0.07881440938042
