18
 energy: -2.764406247486 gnorm: 0.000247210752 xtb: 6.5.0 (97a52f5)
C            1.08445332152190       -0.12562396985944       -0.14356380990970
C            2.56990065231491        0.08139097318000        0.05340160618103
O            2.83981106500446        1.08204584249162        1.00547289211733
C            4.18545659536096        1.24260414257512        1.15823449867681
O            4.97605874351279        0.57262792948671        0.52078589670775
O            4.61357079902727        2.18066869867161        2.05075427337565
C            6.01995282049139        2.21830629741052        2.08656257440576
C            6.53307691651941        3.24923297243789        3.06743358652445
H            0.87028386425996       -0.90068930779938       -0.88099768037266
H            0.61079220827254        0.79877530349311       -0.47428754475065
H            0.61079082909703       -0.40996765979622        0.79613804279375
H            3.06692595288080        0.38230875178659       -0.87937898491658
H            3.06692483055804       -0.83527163031629        0.40033385220823
H            6.36247443126392        2.42356242893788        1.06273891162869
H            6.36247590961525        1.20595740181181        2.34247958827121
H            6.17032222735801        4.24232939238947        2.80206934457597
H            7.62319458512559        3.28204880589018        3.09865444284980
H            6.17032424781594        3.03358362720883        4.07249850963308
