18
 energy: -2.410389661377 gnorm: 0.000713975056 xtb: 6.5.0 (97a52f5)
C            3.16000825485830       -5.80159678218784       -4.22665716547467
C            3.94984776506338       -4.52902360111739       -4.01385317600771
O            3.87664027346991       -4.06796140783719       -2.68279700499547
C            4.48426455150621       -2.85860217986392       -2.56374937091390
O            5.01027663601989       -2.33561029203221       -3.52203687957112
C            4.46362834693671       -2.29135637003847       -1.36282212591900
C            5.09552886118434       -1.05392569882501       -1.41582376442254
O            6.50279978211270       -1.12431654980520       -1.36587298970505
H            3.20669312252328       -6.14592096128252       -5.26094442773217
H            2.11221338789795       -5.64918643676025       -3.96760654530546
H            3.53568750875107       -6.60213028539918       -3.58970148779010
H            3.58291413769019       -3.71703692791828       -4.65670710499114
H            5.01310785425920       -4.66527897137911       -4.25220921945463
H            4.41230631570109       -5.76708241115394       -1.36189929423132
H            4.68295154479662       -0.49565213720516       -2.24817921453841
H            4.47043083601865       -3.15651093422747        0.16505405721894
H            2.70129363975923       -2.70233818322905       -0.98821191562672
H            6.94565718155238       -0.26033986970994       -1.10485237049702
