37
 energy: -7.394917384622 gnorm: 0.000993179791 xtb: 6.5.0 (97a52f5)
C            1.35059923869844        0.50567446912975        0.62301447815530
C            2.60850071398531        0.20092346829308       -0.16162406470177
O            3.06310460990157        1.31334748609532       -0.89242310714882
C            4.21223720094320        0.98540273146319       -1.56141388075037
O            4.73678715358308       -0.11504173240430       -1.50889510811477
C            4.81745811895126        2.04223134734983       -2.37844325834195
C            5.99709426587587        1.93471311357828       -3.13015893045701
C            6.23214681116937        3.13079856293805       -3.75502105189510
C            7.37248632209296        3.48247065889650       -4.61966394212422
N            5.21200294207774        4.01016197728221       -3.39964852076457
N            5.07450282088920        5.29050702185109       -3.79026403023469
C            4.02909851713698        5.92896385699155       -3.30346345927251
C            3.86230698767608        7.33640683263956       -3.70097252355066
C            4.54988704367802        7.81131381490982       -4.81526763523630
C            4.43166088244792        9.12200501538153       -5.21898693161948
C            3.62513646738357        9.99045087841613       -4.51241917669290
C            2.94258872542652        9.54335886691070       -3.39931921919903
C            3.05932455571712        8.23216191106170       -2.99401388318851
C            3.08090461718471        5.31076591151758       -2.44534188847495
C            3.22205451405490        4.02252394239689       -2.06188921674079
C            4.33885614937728        3.34426080387170       -2.55613292043794
H            0.99816720385603       -0.35846327975884        1.18881802666826
H            0.54943736787594        0.82288041137315       -0.04482579049476
H            1.52459975326355        1.32144334909749        1.32512299388005
H            2.45208262633748       -0.61463941150821       -0.88150620822468
H            3.43236892472505       -0.11041183468431        0.49563331005483
H            6.61025724721157        1.05192167265102       -3.19312351118563
H            7.54614050655915        2.71049143809465       -5.37028010941173
H            8.28366112270606        3.59949402624508       -4.03146393346407
H            7.18120693484403        4.42324982601411       -5.13718824041037
H            5.18146120294647        7.12935893496467       -5.35782003188738
H            4.97018473280359        9.46944942059658       -6.08515961054005
H            3.53194996864559       11.01683522511552       -4.82733007350988
H            2.31947260854071       10.22439864614152       -2.84319240375628
H            2.54396710893110        7.90356545856921       -2.10935140215457
H            2.22639278277129        5.87130521213551       -2.11106895554640
H            2.52548124973370        3.52167996638439       -1.41354578922391
