50
 energy: -10.035466862787 gnorm: 0.000779464667 xtb: 6.5.0 (97a52f5)
C            1.52920096755267       -0.76558527355395        0.12676581929578
C            2.90991594373535       -0.48446918806477       -0.42479860882779
O            2.98865406631464        0.77087056310082       -1.05390203876763
C            4.25850520236082        0.96579947620058       -1.52050125783634
O            5.15969265881751        0.15949303807195       -1.38378868455721
C            4.51725656779323        2.24126670977449       -2.22390119093816
C            5.77467850363314        2.50207370554274       -2.74868602426024
C            6.02655063056685        3.68672995052677       -3.39452946136538
C            5.03276305811630        4.65357622848498       -3.52158058339223
C            5.34076428188552        5.89299574209840       -4.25037403190558
C            4.78757830309635        7.13619154914836       -3.93978884306278
C            4.01890780212102        7.42304529907391       -2.72510716778493
C            2.99792347360630        8.37480811723697       -2.74468209780722
C            2.27619421072306        8.66601646292695       -1.61154410416448
C            2.56709089537763        8.02764601661309       -0.42355774280313
C            3.59093933215383        7.10423933901082       -0.37224403663314
C            4.31288677074485        6.80904851503614       -1.50443288391250
C            5.02245224054017        8.19997944090383       -4.87451775003129
O            4.47188459506256        9.46569156740851       -4.92296181351687
C            5.03316996153915       10.10856991544119       -6.01543695026865
C            4.87300039123979       11.39052293617164       -6.55181637799250
C            5.59370629528909       11.74249207880385       -7.66232981320393
C            6.48571533957773       10.84787283632757       -8.27282416687653
C            6.66580107369153        9.58740887234244       -7.77550823187512
C            5.93720375277579        9.21952294145006       -6.64520640857708
N            5.88227143189944        8.07631121049133       -5.89755831516827
B            6.74969374416552        6.84522496129559       -6.10238017358322
F            6.74170578518588        6.54179887536603       -7.45664032980373
F            8.03254645934947        7.16176108997942       -5.67604883370110
O            6.20212071850577        5.74288498130282       -5.29638389841025
C            3.76083569787012        4.37047821867097       -3.02193530800441
C            3.51161288416944        3.18520399717842       -2.37621705050606
H            1.47035033645939       -1.74140008132345        0.61137847389806
H            0.78574404390402       -0.73754204974286       -0.66989066548515
H            1.24678077553111       -0.00719352130576        0.85694702549253
H            3.21159016820483       -1.23433745539175       -1.16976178624001
H            3.67458126647841       -0.49559480660019        0.36475328285899
H            6.54235490528601        1.75406683706018       -2.64196701028891
H            6.99408027252820        3.88642120687718       -3.82371483173697
H            2.79409959574328        8.89284268815305       -3.66553675268794
H            1.48844782198537        9.40020076049502       -1.64970081724383
H            2.00303065604020        8.25889201439456        0.46486392172337
H            3.82882495380070        6.61621123126840        0.55850814548736
H            5.12569421202309        6.10593137744479       -1.45542667622838
H            4.19148460364264       12.07570808483354       -6.08098162237000
H            5.47480291185623       12.72925567217729       -8.07808239757730
H            7.03530295684193       11.15885636644882       -9.14573852575309
H            7.33772915904599        8.87734387565139       -8.22504381473595
H            2.97131906444986        5.08887774484608       -3.15700722708012
H            2.53348925671247        2.96644988035502       -1.98338036179105
