50
 energy: -10.161891208810 gnorm: 0.000727612966 xtb: 6.5.0 (97a52f5)
C            1.67651660899832       -0.78583766269907       -0.06015056703118
C            3.04912136544866       -0.41697729308415       -0.57977307805830
O            3.08808139534860        0.88845105215888       -1.10156966579800
C            4.36268155414315        1.18226693752428       -1.49902584585308
O            5.29824941335948        0.41165841348345       -1.39157485689864
C            4.58081198308483        2.52538409792742       -2.07893270631869
C            5.85686910817348        2.92391751588152       -2.45055880966196
C            6.07205294451037        4.17810186098616       -2.96508666941633
C            5.01804000063957        5.07686634992793       -3.10755291917029
C            5.28179355680239        6.40913171515101       -3.67301039171035
C            4.71210337457195        7.59025513056459       -3.19954720804977
C            3.93701461205701        7.77992994015070       -1.97744041560234
C            3.17981938099928        8.94888108109523       -1.82885475806755
C            2.44835801986033        9.18127528596703       -0.68574879638327
C            2.47324400835055        8.26776974595170        0.34756480090105
C            3.24738259617539        7.13040902974819        0.24132436100192
C            3.97739273706257        6.89220455510862       -0.89931645865427
C            4.93137493216623        8.73767009658272       -3.99001390452581
S            4.25233071146606       10.27252647528211       -3.80414901424345
C            5.00315372557429       11.08845547476839       -5.08638095831571
C            4.96411080525742       12.38758686473514       -5.56605349092496
C            5.73458424858479       12.70134126317027       -6.65365587732962
C            6.54262747607675       11.73484205573952       -7.27036016604656
C            6.58687140190960       10.44956547967201       -6.80397989248407
C            5.80827637945569       10.10358522261966       -5.68878046203884
N            5.72854016430594        8.85636380769436       -5.05271228348391
B            6.57178982390545        7.64407236839344       -5.47922676323554
F            6.41345077953565        7.49113934191359       -6.84987231229178
F            7.89230040930673        7.93719112069319       -5.16460353291507
O            6.12184881690400        6.44047104572097       -4.74794922378670
C            3.73004565423852        4.65458601089831       -2.77493697197689
C            3.51892047352395        3.40041813603410       -2.25914012956899
H            1.64747383646302       -1.79913976288920        0.34347645376095
H            0.93462413053731       -0.71638982845649       -0.85572436464110
H            1.36819426724455       -0.09853584606406        0.72776391994649
H            3.37715730507421       -1.09171324146027       -1.38302198829342
H            3.81146650850503       -0.46933089023105        0.21050995800810
H            6.66940801148713        2.22746411305733       -2.32784383980929
H            7.05702643557652        4.48747012524203       -3.27188835817920
H            3.20528381607940        9.71375259265533       -2.63635441792895
H            1.86697827875930       10.08383782051019       -0.59453899338287
H            1.90259883609944        8.45069600404586        1.24303903300755
H            3.28695291163633        6.43008555283067        1.05938946800989
H            4.61238153329480        6.02672173119334       -0.95249252312646
H            4.34053223048210       13.11468780899870       -5.07708998708729
H            5.72140164208906       13.70593558130964       -7.04279445146650
H            7.13737638191473       12.01004950752457       -8.12547774764450
H            7.19615652756807        9.69274627915416       -7.26671389254811
H            2.90267879407448        5.32509473092383       -2.93104280316799
H            2.52928009131075        3.07495520188870       -1.98774649751452
