21
 energy: -3.891025649398 gnorm: 0.000221166556 xtb: 6.5.0 (97a52f5)
C            1.14198583076463        0.08969384073358        0.25579729701242
C            2.57628661915954        0.12200393168001       -0.22636923130952
O            2.94140387282380        1.38327935805269       -0.73124594403879
C            4.21435583515383        1.32663174871661       -1.22671863467179
O            4.90105985758481        0.32243121532712       -1.21773857414203
C            4.75355119002701        2.58156086080396       -1.80557087172309
C            5.99412795452390        2.58526739388952       -2.42239917510796
C            6.49976687247376        3.74515928010868       -2.96643447461769
C            5.76966710426445        4.91408547896331       -2.89740889825569
C            4.53375319612314        4.92070343756308       -2.28349122748172
C            4.02769790333304        3.76027746616953       -1.74060503343040
H            0.86107617943071       -0.88894224141628        0.64840240596698
H            0.45893843100159        0.33660005565586       -0.55708995431171
H            0.98519651197303        0.82771160477882        1.04250362221717
H            2.75080443436837       -0.60818327027484       -1.02901745894549
H            3.28341806059889       -0.11720903504077        0.57987721946969
H            6.54989310032683        1.66396672485954       -2.46570326798845
H            7.46476720381079        3.73886400917433       -3.44582735186384
H            6.16510135833517        5.82169959812843       -3.32265632473380
H            3.96402557342152        5.83361457524944       -2.22793382853405
H            3.06470291050148        3.74980396687674       -1.25969029351104
