41
 energy: -7.447043516135 gnorm: 0.000884405160 xtb: 6.5.0 (97a52f5)
C            1.73291684875801       -0.99189918832298        0.82011226094535
C            3.18655519420401       -0.91927466596789        0.40252735312895
O            3.98385447371572       -0.40521264404077        1.43798713857016
C            3.72048815352140        0.92202135546104        1.62742395820095
O            3.08133344063900        1.60081911504254        0.84660576275714
C            4.25363249297682        1.53389130989473        2.86961389560163
C            4.86671963318890        2.74172710472874        2.91704335038068
S            5.31417583920969        3.13490139482062        4.53781895373049
C            4.59502367043557        1.66177966239491        5.17374706088709
N            4.11037179620751        0.97851207254463        4.14479732697153
B            3.41088942168798       -0.35451222044151        4.41126229432444
F            2.23281802273989       -0.40180323540942        3.68617801253735
F            4.26976698990640       -1.38169400457260        4.05352899535379
O            3.13258582475041       -0.43413297138521        5.84120549850297
C            3.82355159133214        0.29944227410555        6.75763832242004
C            3.69766030414861       -0.12403369872155        8.14286019736441
C            4.34421691950041        0.56023246666697        9.17002196043658
C            4.21871330656081        0.14849694328349       10.47089175559216
C            3.44156067740264       -0.96816365732573       10.80232139196288
N            3.31394486894704       -1.39337060811743       12.13606982697812
C            3.91053774358400       -0.64177009748897       13.23898287160159
C            2.58410001986741       -2.61205219097767       12.48269446930632
C            2.79620646215146       -1.64941915547720        9.76330536302937
C            2.92226981593195       -1.23498853582124        8.46354198834496
N            4.56250966516042        1.33685265368234        6.48567270054490
H            1.09832336818348       -1.44149248022412        0.05551049427745
H            1.35771737200070        0.01006134124460        1.03693683700566
H            1.63754625449002       -1.56729425099564        1.74228351269821
H            3.33182766481672       -0.27403265644446       -0.47544466978978
H            3.58925805872535       -1.91130734314011        0.15732269648839
H            5.04428924281163        3.36529306746057        2.06223575677127
H            4.94478388328052        1.41727985554652        8.91858571603721
H            4.73060723790206        0.68557937273913       11.24870137225450
H            3.58268899927239        0.39467175814304       13.20385808854982
H            4.99534215216225       -0.67682847513784       13.16936238474882
H            3.61466877842707       -1.05588725187247       14.19979361609971
H            2.97182695908994       -3.45374691406952       11.91338685719529
H            1.52623072904640       -2.48789186359675       12.26264165968952
H            2.68976200773251       -2.84406640889145       13.53968317294258
H            2.18848193420337       -2.50679182161881        9.98941506921954
H            2.42728218132802       -1.75917540768710        7.66339472633901
