15
 energy: -2.123469737624 gnorm: 0.000179311218 xtb: 6.5.0 (97a52f5)
C            1.05875014116387        0.06925898183829        0.05079336586318
C            2.57211824815897        0.05132411217756        0.03836660178250
O            3.08471700729362       -1.04115200743846       -0.71863449753676
C            4.50869267856850       -1.07421727954165       -0.74154694221073
C            5.03371316750199       -2.24102035799945       -1.55004931169202
H            0.65970970685566        0.90466578872067        0.62966568230707
H            0.66629453976120       -0.85449014116729        0.47761154224379
H            0.66629526232780        0.14444496226564       -0.96401385962066
H            2.97362399735357       -0.02770811895585        1.05595042609810
H            2.97362463956822        0.97632190505633       -0.39302816187626
H            4.86000448313855       -1.12412490711363        0.29624652471103
H            4.86000374202737       -0.12006880778046       -1.15277336522205
H            4.67783381759965       -3.18604735578034       -1.13800088692002
H            6.12496374935716       -2.27179827950559       -1.57137543654395
H            4.67783481932386       -2.18713849477577       -2.57959168138318
