16
 energy: -2.249120421188 gnorm: 0.000592099860 xtb: 6.5.0 (97a52f5)
C            1.02682587292605       -0.07679961661851        0.06099202334643
C            2.53976634003521       -0.07473536356188        0.04862197241042
O            3.05743187473188       -0.15679491759740       -1.27472281050683
C            4.48089925946091       -0.16139538980851       -1.30661568820540
C            5.01252963297245       -0.26271738121444       -2.73205596582982
O            6.42271313719976       -0.27118377988681       -2.79685159310336
H            0.62198073571644       -0.01576612535570        1.07282138955014
H            0.63997786793339       -0.98450540907592       -0.40285257173937
H            0.63642975742354        0.76606200118706       -0.50986296317114
H            2.93986689717371       -0.92265243993950        0.61812120927472
H            2.93711886332592        0.83864276113809        0.50816150752150
H            4.83916036379404       -1.00539109768615       -0.70819533286066
H            4.83959070774106        0.75565872993336       -0.82830475840248
H            4.62980881599548        0.56039973009125       -3.34763351249256
H            4.65955413170772       -1.18830196140013       -3.20064611965414
H            6.79013574186241        0.53504025979518       -2.36848678613744
