29
 energy: -4.182605624226 gnorm: 0.000211859318 xtb: 6.5.0 (97a52f5)
C            0.98285048332725       -0.00187646682414        0.02674259334237
C            2.49567546769193       -0.01344194916697        0.04135991869803
O            3.00881092889534       -0.83719853581695        1.08264928941133
C            4.43176279760571       -0.85997314277946        1.11143721322860
C            4.96222212859072       -1.74501660147247        2.23019343657849
O            6.38465108525729       -1.76795429033504        2.25918500257482
C            6.89363745023565       -2.59235262017196        3.30128323428932
C            8.41537914870380       -2.60762486605742        3.32059723944928
O            8.92430039234045       -3.43238293852800        4.36314712190248
C           10.34714063838971       -3.45793908085353        4.39545054826729
C           10.86896688043742       -4.33900942953405        5.50918820163932
H            0.58182967500499        0.62807667575212       -0.76956552793864
H            0.59198752585407        0.36502082432268        0.97633117251786
H            0.59198587740736       -1.01041349326112       -0.11176327342456
H            2.89700101648640        0.99721860124088        0.18527748516605
H            2.89699934442492       -0.38609356844522       -0.90905005376050
H            4.79402132450191        0.16569268022035        1.23672593940333
H            4.79402063607572       -1.21794515369012        0.14213635105791
H            4.60034790615545       -2.77090229584153        2.10513594468109
H            4.60035045733109       -1.38721777211907        3.19976171346460
H            6.50666835603533       -3.60722779436881        3.16229537107978
H            6.50666205603138       -2.22353720907321        4.25692937521233
H            8.80196659363165       -1.59263154452485        3.45936575782760
H            8.80197278281815       -2.97625169875479        2.36478470000052
H           10.69817174168061       -2.42521055033552        4.51146441474654
H           10.69817075740941       -3.80851368198000        3.41714303919141
H           10.51169383029143       -3.98687912451362        6.47741733239899
H           11.95992540104259       -4.36362559328695        5.54030823442809
H           10.51169731634223       -5.36228937980127        5.38933822456622
