19
 energy: -2.713921185273 gnorm: 0.000139964342 xtb: 6.5.0 (97a52f5)
C            0.91685940050822       -0.08574180940330       -0.01991929528379
C            2.42879473397632       -0.05402508436037       -0.06318338951254
O            2.90399132673692        0.73912132092684       -1.14510732473216
C            4.32082274284052        0.78396933560748       -1.20628302148053
O            4.86463465719161        1.55878936904893       -2.26321137895597
C            6.28781346561765        1.55930388838737       -2.26391562531704
C            6.84235045378746        2.39152264753519       -3.39913855138407
H            0.53835891085424       -0.69106264079547        0.80579247089168
H            0.51544063544424       -0.49167296413606       -0.94891977380111
H            0.51544028665918        0.92234716598476        0.08768381878281
H            2.84239811961305       -1.06341018936995       -0.17904062293739
H            2.84239787734084        0.36016870237728        0.86456923318732
H            4.68961631413134       -0.24040950925670       -1.31056892305979
H            4.68961519183950        1.19164313831032       -0.26075108215800
H            6.62452650939208        0.51776969427659       -2.33589195232899
H            6.62452840157890        1.94132219545216       -1.29230114018225
H            6.49604061098364        2.00862131562165       -4.35956404689136
H            7.93378785410340        2.40074145277241       -3.41171578923572
H            6.49604250740088        3.42265197102090       -3.32295360560114
