43
 energy: -8.411244760166 gnorm: 0.000677090769 xtb: 6.5.0 (97a52f5)
C            0.89594940258805        0.34611204114460        0.04757698167373
C            2.38676376871887        0.56996509385195       -0.08267356613951
O            2.97970759386474        0.89359304713690        1.16946473368761
C            4.35707231573427        1.08993587649935        1.13820938498557
C            4.99413267421859        1.37557576981631        2.35185619391705
C            6.34647418898836        1.58070124233071        2.41438168642424
C            7.14077299138296        1.51413853724348        1.26389928984792
C            8.56489759176325        1.73179620491597        1.36561989084357
C            9.43531659586388        1.73188169589150        0.33476272197920
C           10.83370233434363        1.94079115978616        0.49726450955617
C           11.70731882506944        1.95214071963377       -0.53239434183878
C           13.10762591030112        2.15293748379016       -0.36778660577928
C           13.97582075002761        2.18195569347303       -1.39808138073711
C           15.40710814638927        2.37446512531954       -1.28788101072695
C           16.18568178564963        2.44036549979490       -2.44792147389852
C           17.54608564966978        2.61999793799241       -2.37538872922585
C           18.16945299279455        2.73748667877056       -1.14776609963444
N           19.61561520452654        2.92721357706277       -1.07293485265970
O           20.25524021259358        3.01107183318360       -2.13075872200580
O           20.14428634210040        2.99654309477924        0.04556402606359
C           17.41727911723703        2.67311176548930        0.00971495071155
C           16.05606256053068        2.49443948052810       -0.05456029619799
C            6.50464552732287        1.22962176314362        0.04940441859196
C            5.15120021890591        1.02272287522201       -0.01357983053279
H            0.43093074400230        0.09273764682120       -0.90681097549181
H            0.40606105514373        1.23934311164827        0.43600577031335
H            0.68920285510698       -0.46226110392474        0.74940177492009
H            2.59948229512544        1.39273495116356       -0.77609169506345
H            2.88469065830261       -0.32950815006926       -0.46493583525467
H            4.38922595552168        1.42906777477294        3.23949491769207
H            6.81393564566149        1.79858432834278        3.35918794002867
H            8.95703155370408        1.90740242424839        2.35199827146185
H            9.07376438136543        1.56870108074533       -0.66374317466409
H           11.20873258407079        2.09540386601575        1.49383174622080
H           11.33286494617262        1.80150018884983       -1.52986909533902
H           13.47032700033825        2.28917469805167        0.63419479417426
H           13.58137252569713        2.05415403715057       -2.39077307776308
H           15.70650516560301        2.34956940747117       -3.40758945912661
H           18.14723823563419        2.67238987634867       -3.26736863529808
H           17.92082424586978        2.76401765640556        0.95739868885752
H           15.48964605285585        2.44119305902493        0.85752201633154
H            7.08757893278004        1.16667427267916       -0.85162984724976
H            4.69615246645675        0.80586667745106       -0.96247600365510
