28
 energy: -4.229939418334 gnorm: 0.000840170780 xtb: 6.5.0 (97a52f5)
C            2.11868092271357       -1.18262323916172       -0.38023239893701
C            2.39789186055277        0.33070927143471       -0.42890701449180
C            1.64502821887029        1.07842242771227        0.68853831598740
C            0.11844500107616        0.79134932228179        0.66526935648089
C           -0.59460939343950        1.46154756078709       -0.53248878807733
C           -2.10718945083345        1.18028131184623       -0.51154396381529
C           -2.38788139533016       -0.33318687757701       -0.51223111318386
C           -1.68058670590103       -1.03813909471740        0.66112417517836
C           -0.15375009616908       -0.75103456158239        0.69024538628253
C            0.60880288386003       -1.47042882132585       -0.44819985499011
H            2.52615329290352       -1.59745788103195        0.55066530518353
H            2.65102439651224       -1.70368904061482       -1.18907902106647
H            2.09615500612761        0.72689355403571       -1.40640693038282
H            3.47815267139305        0.52534581518603       -0.36280105983550
H            1.81605888512114        2.15980508093994        0.60566808943027
H            2.05910126948244        0.78877068989909        1.66236912395067
H           -0.33089456354390        1.21171996798372        1.58170507148949
H           -0.16606424769149        1.08238166918020       -1.46577214743160
H           -0.39092792892710        2.54040349775137       -0.53909875428657
H           -2.60510742674543        1.67006774738889       -1.36076628451825
H           -2.54916341571201        1.63165678885552        0.38582558226059
H           -2.05145966274949       -0.76772022312081       -1.46190345915739
H           -3.47062709777778       -0.52301115715327       -0.47805939721627
H           -1.84768806947171       -2.12212565699284        0.61044777724562
H           -2.13375999167721       -0.71457452204126        1.60645629444013
H            0.25568672761907       -1.13386230531354        1.64123767882201
H            0.21492749791921       -1.13845309736807       -1.41443181300116
H            0.40984081181835       -2.54967822728187       -0.41181015635998
