91
 energy: -18.316193176795 gnorm: 0.000516678827 xtb: 6.5.0 (97a52f5)
C            1.14718167795983       -0.48807836313668        3.76243928225401
C            2.56215739479102       -0.36314770606788        3.24092065281907
O            3.34796942409512       -1.49954748109393        3.57874469163429
C            4.66963666469927       -1.46998806957183        3.11018605144966
C            5.47478693510951       -2.57466794865101        3.39580096181829
C            6.77784627479043       -2.63436649195008        2.96876801293020
C            7.33303388422961       -1.58802291175728        2.23988855878545
N            8.68919964697484       -1.66105378411828        1.76872557714529
C            9.16298877587734       -2.89649910753370        1.20794957293884
C           10.44273621284603       -3.36386387819381        1.48820220928953
C           10.88283482875407       -4.55351577848852        0.96365261049005
C           10.06392551987659       -5.32810563156563        0.13929140786119
O           10.59665797350168       -6.53014743713572       -0.34886313563235
C            9.72395708333290       -7.28295971958426       -1.18207396816283
C           10.37654326455314       -8.56044093555367       -1.66353822282260
C            8.77938293916115       -4.85433051647377       -0.13708616191720
C            8.34088576565429       -3.66355224682134        0.38855509449571
C            9.54031528357100       -0.51801035286906        1.83686902500058
C           10.54728087539168       -0.31776107495635        0.89190664275273
C           11.35603417909035        0.78769098135324        0.95136830041793
C           11.20069251321659        1.74257178165911        1.96195387377855
C           12.05430199404020        2.90219153750931        2.01193534438299
S           13.28831018725762        3.25538271595077        0.82156610065233
C           13.77362843817792        4.73292490784352        1.62125429680190
C           14.79179147139583        5.58460104268954        1.15047538989032
C           15.16606517221899        6.71803000014312        1.79835296452864
C           16.19607708751553        7.62266595509969        1.40185954042893
C           16.93338833307762        7.39130483058873        0.26403499336899
C           17.99151004388848        8.21477276487362       -0.16083861445230
C           18.62648093620634        7.87959119758148       -1.36631351835357
C           19.67500648039311        8.57312128238457       -1.93220477620146
N           20.56411449511253        9.18939557805533       -2.37136488218139
C           18.18036414070574        6.77260463670296       -2.06169581289531
N           17.74439509138564        5.82387251694635       -2.58410233768995
C           18.35549440851561        9.33886675694448        0.69720410804515
C           19.43389651417042       10.18786744006317        0.42590107435057
C           19.77385270265172       11.21436973938599        1.26836824766492
C           19.04661214359626       11.42838431034435        2.42340924936121
C           17.97884916521824       10.62075022844307        2.71817943741400
C           17.59863673090420        9.57444645834999        1.86909918168929
N           16.48542422380089        8.76007453677480        2.16658199295058
C           15.58628660017387        9.13609157980417        3.27702853349472
C           15.98818478641433        8.48945319526775        4.58509480295328
C           13.01677673476362        4.91924265456354        2.76823746001638
C           12.03012957830214        3.89387310176167        2.97332191851933
O           11.13986180541370        3.93854149806913        4.05252753936645
C           11.09688404536162        5.22494099503407        4.64400946920305
C           12.50469727261113        5.77025463486282        4.87741252584095
O           13.18422682120585        5.98384201452111        3.65182091300039
C           10.19417980918462        1.53305049340138        2.90957501699103
C            9.38099134433898        0.43151815634039        2.84675857964673
C            6.53831167350184       -0.48230781565460        1.95421091307249
C            5.23383655446771       -0.42134444432568        2.37994283222359
H            0.53317618107798        0.37623454161806        3.50322195900745
H            1.14524138380262       -0.59081546410427        4.84786982076600
H            0.66604668544321       -1.37834465814000        3.35662124238473
H            3.05696116281682        0.52155276273313        3.65967750578257
H            2.56828145845163       -0.26582582587163        2.14846665571616
H            5.04463793877663       -3.38317264484302        3.95963842677829
H            7.38844083333837       -3.49090203095617        3.19449834157865
H           11.07882858093693       -2.78296206866486        2.13270743964535
H           11.87168680178713       -4.91636037770420        1.18089850005763
H            9.43911263605876       -6.64642305718816       -2.02858715099900
H            8.81693440192840       -7.50072975341867       -0.60519167190731
H           11.28373697597288       -8.33940341276767       -2.22649508095979
H            9.71530630850731       -9.14671486062317       -2.30414571056143
H           10.66884035678813       -9.18427305282150       -0.81844589910065
H            8.12221075881942       -5.42490718061018       -0.76720711894229
H            7.35086157992859       -3.30375625305994        0.16944912897567
H           10.66919328010902       -1.03768331028187        0.10198385645995
H           12.12506472653189        0.93574644487281        0.21389340627305
H           15.27950331152549        5.29852922934147        0.23679042173595
H           14.64853219898827        6.93065015253841        2.71354894942967
H           16.69338699206143        6.54187281715735       -0.34622973253162
H           20.02137568664289       10.04379152511411       -0.45982666396614
H           20.61133720375091       11.85103924146664        1.03350490132694
H           19.32115369573521       12.22785161641584        3.09202828556490
H           17.44260542799357       10.78736302277840        3.63431380517145
H           14.55934160268618        8.87603574526954        3.00113417623014
H           15.56492019179635       10.22695967390988        3.36004881229265
H           15.97809936521055        7.40169392003913        4.50659723713062
H           15.32126915298773        8.76819868521885        5.40326290321908
H           17.00171848591736        8.77518355106502        4.86898878808422
H           10.51528704108674        5.15826210964602        5.57211759068905
H           10.54932474385973        5.87495533757967        3.95201019434382
H           13.09941869773600        5.04735338882163        5.44736566685530
H           12.49881165539666        6.71389784814893        5.43727799608523
H           10.06791182789468        2.25589625994258        3.69506289607447
H            8.61573243387283        0.27852212029952        3.58717446793031
H            6.96227985923475        0.32348356060497        1.38093600791959
H            4.64349447125826        0.44503256828141        2.14467612424517
