22
 energy: -3.063654181222 gnorm: 0.000403929590 xtb: 6.5.0 (97a52f5)
C            1.70154908412948        0.37273934555029        0.28960874440800
C            2.66071006217870       -0.71739022055439       -0.09650267449837
P            2.45323789034643       -1.06916869829831       -1.88538089175572
C            0.84391165018672       -1.90596830784783       -2.16005381254161
O            2.44301210652251        0.27876858944292       -2.63868474436949
N            3.83277625299758       -2.04189201529760       -2.43559714712403
C            3.63804164353293       -3.35517600853526       -1.84868064859728
C            3.75652067866112       -1.95186782571012       -3.88863225880749
H            1.81896824896480        0.67438995862438        1.33508233279857
H            0.66376066281847        0.05749550733042        0.15016657913220
H            1.85234528147820        1.25915779871531       -0.33379387816257
H            2.49496396239202       -1.63547562912975        0.47081425690297
H            3.69947864113791       -0.41663792354140        0.05471070217857
H            0.03851796836324       -1.22538409456619       -1.90264317369991
H            0.76340005466451       -2.79474082649761       -1.54147745409973
H            0.73865824541820       -2.18372772261980       -3.20372434659935
H            3.59746564551061       -3.28601279081553       -0.75893327128964
H            4.47474380864861       -4.00518059969812       -2.11842570548616
H            2.71550498055552       -3.81415778219377       -2.21249827719910
H            3.82370609043959       -0.90136433431760       -4.18825043377829
H            2.81259710064836       -2.36260981274690       -4.25638539856958
H            4.58408994040270       -2.50391660729449       -4.34327849884087
