10
 energy: -1.592928666461 gnorm: 0.000840131090 xtb: 6.5.0 (97a52f5)
C            1.06733706242077       -0.03563600215024        0.07521490412025
C            2.57676464692558       -0.01353550193463        0.09842852532640
N            3.08492073924608        0.92470812710695        1.08391545341726
O            2.28256082253799        1.57155198784163        1.76332942546162
O            4.30885082508119        1.03547340227670        1.20025812984168
H            0.67213002635159       -0.73717782739446       -0.66165280884583
H            0.67247416801302        0.95579266296283       -0.15279403167521
H            0.67247412986785       -0.31203812192846        1.05425558261232
H            2.98697375622201        0.26949297307436       -0.87400692450539
H            2.98697382333392       -0.99869169985468        0.33338174424690
