63
 energy: -11.396471997824 gnorm: 0.000425226548 xtb: 6.5.0 (97a52f5)
C            0.55013819163500       -1.31085776094232        0.46092962816878
C            2.05238685800872       -1.20272717238742        0.40650915701129
Si           2.94099295465655       -1.77162577864560        1.96946910318026
C            2.47561154177858       -0.59665731953561        3.37296069537260
C            2.68447577016802        0.86279816182918        3.05025647345693
C            2.44454100587566       -3.53421142105368        2.43227553466908
C            1.17842179319103       -3.65754390108293        3.24245287890506
C            4.77518788801587       -1.74889970420937        1.64045691418467
C            5.57612739770894       -1.06706548454101        2.52552529940382
C            6.95055480282892       -0.93256914983722        2.31250360478279
C            7.79579779971282       -0.21731872634164        3.21558101635635
C            9.12351669758648       -0.09959439661511        2.98859457826303
C            9.73257454999079       -0.69055961701032        1.83746426618812
C           11.10147914565343       -0.59072249861926        1.58266196699449
C           11.65639478112602       -1.17985531971654        0.46522115876797
C           10.87112277040607       -1.88232528854893       -0.42535721225916
C            9.49666077401096       -2.01129631444656       -0.21695234090303
C            8.65050645390664       -2.73614466016115       -1.11188399092450
C            7.32273167271318       -2.84388577861958       -0.88400604167730
C            6.70429509843542       -2.24163152918460        0.25349272215000
C            5.31867179121336       -2.35349087195524        0.50521591283028
C            4.46996964635995       -3.15676831624644       -0.41569406074000
O            3.89745298194195       -4.16073223831134       -0.01839757665097
N            4.36403381378063       -2.72420217570485       -1.72501939283441
C            3.69631750264416       -3.53263208034801       -2.77252497037568
C            4.38815312557129       -4.89569774975283       -2.85843697233566
C            2.22246830060223       -3.72042011257923       -2.40376619096767
C            3.80549217900857       -2.80623615512454       -4.11719355144949
C            7.51872132835907       -1.52470365641221        1.16180107168732
C            8.91956613263572       -1.40695768076845        0.92559608708744
H            0.07867303434260       -0.91856157908102       -0.44359089099848
H            0.14428522942285       -0.75762553967672        1.31034787846198
H            0.23256103221928       -2.34980616975102        0.56824436821406
H            2.37500134574308       -0.17312720931232        0.23375507954913
H            2.46361797067142       -1.79591032795132       -0.41096692700071
H            3.05674486983283       -0.90654640273907        4.24479538909101
H            1.42833942468126       -0.79894607313721        3.60993280190350
H            3.71684140085635        1.06365141363626        2.75785200351210
H            2.45233846487612        1.50757682591569        3.90148962758018
H            2.05130608101576        1.17974669407000        2.21909267975668
H            3.30107571550162       -3.95256403516267        2.96679474441122
H            2.37361561081450       -4.08042644390389        1.48876438432687
H            1.27348752387354       -3.15184688199735        4.20549492030903
H            0.92347086533597       -4.70050832078516        3.44564531711021
H            0.32892885318208       -3.20746449329912        2.72595456019649
H            5.14481069280074       -0.63075425412521        3.40795724932922
H            7.35278773904343        0.23150095238624        4.08787307977872
H            9.74619814032302        0.44287516163527        3.67883430116841
H           11.72304456006707       -0.04694453604628        2.27305791135614
H           12.71586752431999       -1.09221062199904        0.28717441361295
H           11.31382555941144       -2.34081705592686       -1.29280517797980
H            9.09202793591331       -3.19873747880929       -1.97761761698907
H            6.70282600025901       -3.39238288961313       -1.56909459665825
H            4.88421006050313       -1.90816674738218       -2.04998183330535
H            4.35545819844980       -5.39336427871067       -1.88982579992512
H            5.43344345434734       -4.78124088912667       -3.14160192765433
H            3.90374512066915       -5.53863347508793       -3.59270315026128
H            2.13724227764829       -4.19075513467314       -1.42503836472492
H            1.71197149676646       -4.35008166502812       -3.13183756108384
H            1.70782296232897       -2.76150977733339       -2.36557460890887
H            4.84909738940543       -2.65836649488597       -4.39252617745063
H            3.32906283900243       -1.82792147152639       -4.06530914611077
H            3.32336587684003       -3.37732610396579       -4.91013269914644
