43
 energy: -8.424172035900 gnorm: 0.000892629620 xtb: 6.5.0 (97a52f5)
C            1.37663501783106       -0.33411484285263       -0.15502417157168
C            2.71551524323373        0.38145834831464       -0.13195204840531
C            3.04386425758196        0.99303434710824       -1.44367002058474
C            3.47355624005034        0.34408991025798       -2.58420493397447
C            3.74022720145370       -1.11695733235524       -2.66079611094645
O            2.91607516569214       -1.90033272340292       -2.22776412203094
O            4.94561078104049       -1.49844696609206       -3.17954650728383
C            4.99146478383753       -2.88208963431919       -3.28062274812689
C            3.59312162196235        1.30289521640970       -3.62124219919314
C            3.94303161970337        1.08607242014567       -5.03204845520309
O            3.99885573146820       -0.03686717179916       -5.50165230639840
O            4.17624137076454        2.21353663862556       -5.77403752349365
C            4.49750917980747        1.85256421076701       -7.07751563498976
C            3.23630990875866        2.53280731809071       -3.06514634172441
C            3.15830483873021        3.82249258679148       -3.59847531059646
C            2.73517377582501        4.79706701875010       -2.76475042452185
C            2.38562626506689        4.50962695603213       -1.41810725542913
C            1.92453908866620        5.58669873036693       -0.52778000448501
C            2.00059646763601        5.40575791205560        0.85073110261643
C            1.57518485579961        6.38448699176055        1.71959561857128
C            1.05800869728631        7.56513665374890        1.22810462399150
C            0.96393965781743        7.76022964951406       -0.13461549153180
C            1.39025201526383        6.78297777260788       -1.00591090082905
N            2.47171931420413        3.30173225807068       -0.90128048540519
N            2.89204785083011        2.33528156209313       -1.73909749199383
H            1.12960137658359       -0.77803526007578        0.81092911864460
H            1.38342944440373       -1.13364636717544       -0.89866108641025
H            0.57282283793974        0.35218589314385       -0.42510622187918
H            3.51776210266769       -0.31273062937245        0.14609751513262
H            2.71856962581094        1.16869730720343        0.63134448746734
H            5.96354977289786       -3.17753828868913       -3.68128760541554
H            4.19297933337516       -3.20443939445930       -3.95419677509633
H            4.83949375583674       -3.31786545558821       -2.29018590526341
H            4.68727292615698        2.75292916200347       -7.66521433667666
H            3.66251867310536        1.29199039339201       -7.50453380482422
H            5.38860010033212        1.22041173076308       -7.05764142922635
H            3.43366835275541        4.00213653701822       -4.62228320078806
H            2.68158247706145        5.81100742021105       -3.11859117921043
H            2.40096442632147        4.47984402398605        1.22547184908408
H            1.64577029215366        6.22869369933295        2.78335371971718
H            0.72549613924992        8.33294837398587        1.90706308912697
H            0.55182105420148        8.67924569018530       -0.51751287316863
H            1.28643635883665        6.93443733344478       -2.06548621767499
