31
 energy: -6.309788893418 gnorm: 0.000836072067 xtb: 6.5.0 (97a52f5)
C            1.29813982330007       -0.50158023636495       -0.47915394566643
C            2.73720927478844       -0.24506895036944       -0.06636135459399
C            2.99187572611294       -0.64064302176317        1.34516666013899
C            3.36750127195478        0.16052382026545        2.39997323449039
C            3.46437483420834       -0.62791591168119        3.54600630954508
C            3.13900610328592       -1.92578771792672        3.18290261995870
C            3.07308303466247       -3.13402884013648        3.89693285857138
C            2.71650005860607       -4.22978872383793        3.19380331652379
C            2.41924115650419       -4.15434320552960        1.80293371476886
C            2.03538266161320       -5.36725042756747        1.06190455895790
C            2.12239182268229       -5.36958424378309       -0.32858354049979
C            1.77260614288615       -6.48158746681691       -1.06183804179725
C            1.32137272676686       -7.61696439116917       -0.42027074829826
C            1.21712890473416       -7.63273747256678        0.95610136031498
C            1.56733937035877       -6.52159254549423        1.69172513636535
N            2.49149652927173       -3.03205216467315        1.11959112556844
N            2.84586573900066       -1.93447028795509        1.82304915892032
H            1.11329253124913       -0.23272319779354       -1.52131920623149
H            0.60519564866889        0.07111924232061        0.13985951547308
H            1.04097466705502       -1.55520197848717       -0.35484274078749
H            2.99585698935676        0.81266478362546       -0.20020316461752
H            3.42497562300308       -0.80311450831949       -0.71375308656599
H            3.55303980970346        1.22048939749511        2.34224653167856
H            3.73791373164074       -0.29875118481307        4.53462638078820
H            3.30654789215711       -3.16676905369060        4.94655337213820
H            2.67649803922546       -5.18368803107674        3.68859479617367
H            2.47242454983808       -4.47979746485488       -0.82221368222184
H            1.85129769711720       -6.46459853837590       -2.13653101984072
H            1.04649885990704       -8.48789997555975       -0.99270882521456
H            0.85668314854430       -8.51653957713831        1.45663444483122
H            1.45575563180038       -6.53888812596041        2.76100426112968
