19
 energy: -3.418139912747 gnorm: 0.000227786186 xtb: 6.5.0 (97a52f5)
C            1.02051477848854        0.07048650484045        0.01314945992945
C            2.52278387117181       -0.16469785799363       -0.00393189777565
C            2.96185065537106       -1.01587527085389       -1.15928779424713
C            2.81322551247584       -2.39500960688960       -1.11380815935197
C            3.18948278781854       -3.17889389011979       -2.18710845273873
C            3.71463207705428       -2.59997381642666       -3.31862522891160
C            3.86964285972883       -1.21499847950850       -3.39805830177056
O            4.39045917263918       -0.60086259464286       -4.52335889150594
C            3.48148873098241       -0.44044476978002       -2.30386336971280
H            0.71195853635503        0.69917213316695        0.85112687447075
H            0.47600657766040       -0.87224887530793        0.08984203478589
H            0.68964741956318        0.55758777190243       -0.90569104234245
H            2.84634971912977       -0.63925334379899        0.93096503802888
H            3.05746621673036        0.79277089223868       -0.03935911055275
H            2.39733749699681       -2.84933610549049       -0.23088045305610
H            3.06925154622722       -4.24878314373192       -2.13781012329239
H            4.00863748796483       -3.20859212999087       -4.15525054083609
H            4.61213497643999       -1.27915107420129       -5.19902673749462
H            3.59427957720204        0.62595365658808       -2.36761330362624
