19
 energy: -3.052768972948 gnorm: 0.000502419345 xtb: 6.5.0 (97a52f5)
C            1.54751589459545        0.03369903608098       -0.15504540906644
C            2.92522200769823       -0.07860861398208        0.48361158202392
C            3.54302917905193        1.21441995345136        0.67420252384152
C            4.74337765056184        1.48510387827235        1.20963358624485
C            5.29385659018567        2.74841201682593        1.35846474301399
C            4.76293151751356        3.97024785151346        0.99299159696983
C            3.58318417307003        4.22080726667515        0.39054902648176
C            2.60812590039927        3.42911947737388       -0.02823013726033
O           -3.06193591417789        2.76157711892158       -2.23717963823892
H            1.07852106458384       -0.94122479615539       -0.30451609563367
H            1.60966237785759        0.52733584844229       -1.12645368525623
H            0.88062158224598        0.63607456970011        0.46432565292729
H            3.58244587161490       -0.70325674662260       -0.13567609648498
H            2.85602185000896       -0.59146491346808        1.45198188585257
H            5.32173471279854        0.64205108534988        1.55222584969625
H            6.26909522125883        2.78113676562807        1.82239655769504
H            5.36012771414872        4.84300591825104        1.20678186193964
H            1.92038965070601        3.96545215166115       -0.41413869475664
H           -3.41880704403453        3.60253213205652       -2.55996511013793
