90
 energy: -15.002513756645 gnorm: 0.000705537050 xtb: 6.5.0 (97a52f5)
C            1.84344442751941       -0.43947965309415       -0.42997438079145
C            3.12494379732456        0.36191872172303       -0.48554603747212
N            3.11141567479226        1.47840377148682        0.47309438928059
C            3.55105325010931        1.44978132562953        1.78322064701691
C            4.31533869410174        0.37652857588723        2.40783142267391
C            3.89537866896820       -0.20693416843170        3.61255217787508
C            4.61694579856350       -1.21204564232957        4.19850844352516
C            5.80451481502412       -1.68985220168914        3.62182939702672
C            6.58113520411540       -2.76283646121935        4.25342534730402
C            7.96155444460296       -2.88437931563007        4.04190864108168
C            8.68845845225649       -3.88470596981691        4.63260217727841
C            8.08087180554347       -4.83325239380993        5.46689052248612
C            8.85988315888160       -5.90793279326582        6.09277518802126
C            8.26544554657250       -7.13044074098050        6.44367816281785
C            8.99470110719335       -8.13764753557916        7.01627322885714
C           10.36303896970940       -7.97843162924608        7.28137100271005
C           11.14073791699148       -9.04848672799455        7.89468773913300
N           11.21798576059575      -10.35421491437528        7.44745380334523
C           10.72567530855047      -10.87324272791463        6.16161130023898
C           11.76967809277806      -10.75370139912478        5.07358563136282
C           12.07474011488092      -11.06677010757221        8.29468772874469
C           12.50978074592702      -12.39297440554346        8.29017767350742
C           13.37055143431014      -12.82739118265209        9.27886857491790
C           13.82844533609647      -14.24344627703957        9.31338487276848
C           13.78198820499871      -11.93175349590940       10.27996175388682
C           13.36786742734140      -10.62247254912727       10.29630805433823
C           12.50949806870343      -10.18071515378653        9.28972004979331
N           11.93419213199684       -8.93361074008471        9.02051600490985
C           11.98598875397856       -7.79233961428412        9.94813685354763
C           10.96728152810521       -7.92648823350897       11.05799883069558
C           10.95957641055952       -6.75600692770754        6.93849646778270
C           10.22974869892209       -5.75367410383849        6.35849360410998
C            6.69983460317420       -4.71387367000443        5.67606752492802
C            5.97414960594947       -3.70862960703065        5.09156823202068
C            6.22254473602540       -1.10070112614083        2.41798553138166
C            5.49916529094515       -0.10070588430255        1.82602977848797
N            3.15416536146843        2.62469470589468        2.39355119430399
C            3.58034692439197        3.12108235276597        3.71172585157204
C            4.83426773382036        3.96127986397086        3.61485147978183
C            2.46543713572489        3.40372041540592        1.45670402035994
C            1.87062163653513        4.66281343841500        1.53511798334002
C            1.24951236110361        5.16828054426694        0.41945970304997
C            1.20436022165628        4.45600906960372       -0.79065321038398
C            0.49948756397712        5.03198182894350       -1.96854215126371
C            1.78678740762535        3.20614587971615       -0.86591207605768
C            2.42546366976930        2.67930298900086        0.25766121025097
H            1.84354638948813       -1.26699223511983       -1.14196437401569
H            0.97971636063470        0.18890934243001       -0.65019983572092
H            1.68903683317314       -0.85598690410582        0.56615519738335
H            3.29285182959104        0.77406404539762       -1.48547672029081
H            3.98959593844163       -0.27215280847109       -0.27186236598905
H            2.97848158074770        0.13328280045534        4.06137504817969
H            4.28253687393180       -1.62692607711393        5.13260641920877
H            8.46369759257938       -2.16222611242628        3.42297980589256
H            9.74245480353684       -3.96038825602460        4.43222005950072
H            7.22242221844343       -7.28698165529592        6.23378104846141
H            8.51730395245851       -9.06105874006707        7.29426642956052
H            9.81683859152637      -10.32905496130866        5.89076447845061
H           10.42139675160344      -11.91441635954614        6.30769664001411
H           12.06607411692314       -9.71357920807904        4.93320157299716
H           11.41048438057165      -11.13124939030276        4.11439990975248
H           12.67065668713254      -11.31006779472026        5.33398622778975
H           12.17034731787155      -13.06860159083633        7.52759234235743
H           13.79912367660011      -14.69291339258168        8.32044207533221
H           13.19503987501752      -14.83926631734430        9.97134271179375
H           14.85411236000783      -14.31581708657931        9.67668542421638
H           14.44140280935786      -12.28944155830249       11.05209998131197
H           13.69755852067735       -9.94315046224599       11.06160017018667
H           11.82337474168352       -6.87256403772338        9.37988953029562
H           13.00260892219904       -7.72430683217900       10.34791752882965
H            9.95691960037142       -7.98921325141795       10.65185222450799
H           10.99736216571585       -7.08216202913911       11.74932297656674
H           11.13634517002174       -8.83597078111633       11.63571606934096
H           12.01276639026272       -6.62518013352634        7.11607736182418
H           10.70843861135993       -4.81948322377899        6.12460624713590
H            6.20558741831016       -5.41160253744061        6.32855290360042
H            4.91268597960734       -3.65849521205588        5.25761871876990
H            7.11655705363307       -1.45922101368985        1.93985124265589
H            5.84771975847848        0.35233992053216        0.91436202038238
H            3.73576998178036        2.26512007566089        4.37389056893639
H            2.75255573857487        3.69116173397052        4.14497673821515
H            5.65684011407989        3.38326514767233        3.19191742554281
H            5.15526086204551        4.33669855107617        4.58838487424426
H            4.67887028100410        4.82072016828709        2.96168041557680
H            1.89700973495749        5.21596673301217        2.45664297681647
H            0.77934228888487        6.13563157723191        0.46589487028281
H            0.59691003260730        6.11780833031423       -1.99289347737961
H           -0.56336147997018        4.78994466382558       -1.94054822204739
H            0.90886346205923        4.64471478276095       -2.90196619712444
H            1.75517970977074        2.64432596025206       -1.78055338789192
