87
 energy: -14.534905315900 gnorm: 0.000621697029 xtb: 6.5.0 (97a52f5)
C            0.14294629693283       -0.52548040199030        0.77083666092264
C            1.58910735407109       -0.26071631138629        0.41080230036770
N            2.29762746038281        0.49732083978025        1.45473679650320
C            2.75888196377025        1.79776148787496        1.37292700356015
C            2.58694146593794        2.70387911683737        0.24356917902496
C            1.32126893261356        2.96230760525634       -0.30331307508282
C            1.17218731336429        3.81336326570976       -1.36562374022385
C            2.27863058611824        4.44590153543367       -1.95442828804368
C            2.12168056524218        5.35363095027479       -3.09777893065256
C            3.14140608273241        5.51258782980266       -4.04352307858722
C            2.99503203229369        6.36779247398723       -5.10179185482694
C            1.83077745530956        7.12974351857287       -5.27654322173297
C            1.74820338351167        8.07478463425339       -6.41016668798875
C            2.11214457332395        7.67456814449307       -7.70561932905460
C            2.06925878069387        8.55015605827888       -8.75688517794229
C            1.67599712569977        9.88424518544094       -8.56944201066746
C            1.64836656766492       10.82556106421011       -9.68308670048528
N            0.98559835012388       10.64771849086484      -10.88287050592928
C            0.01554150966906        9.58947606207093      -11.20671767980154
C           -1.40312817040314       10.01554481109397      -10.90006708720246
C            1.19176259972800       11.77957915328953      -11.67984640199260
C            0.74560058182583       12.12508239743143      -12.95669306614598
C            1.13177777002536       13.33299266939211      -13.48399178320134
C            1.95260234999416       14.20394615981329      -12.76406754382221
C            2.39748735491515       13.88005297157933      -11.50581260457137
C            2.01215754585617       12.65650355884300      -10.95540242001824
N            2.27895253243501       12.05500214868187       -9.72039921725124
C            3.27643789339959       12.56274314594425       -8.76455549130853
C            4.68785951071890       12.23827904497017       -9.20219024928840
C            1.32378673703266       10.29027876955494       -7.27308743877609
C            1.35712788032483        9.41019528345459       -6.22549504089434
C            0.77827264195878        6.96101287392290       -4.34464126275475
C           -0.51457921311900        7.68594657414090       -4.48482760718618
C            0.94665641574541        6.09393334344657       -3.28594139705961
C            3.54441818482571        4.17731737498215       -1.41065808150422
C            3.69443660718382        3.33594332526960       -0.34167149555072
N            3.46498390985249        2.07308558820192        2.52893452723855
C            3.95363980303581        3.38843800126146        2.97437794710188
C            2.96525994671727        4.07261736161798        3.89290835449145
C            3.45183047566564        0.93557996010124        3.34352086985300
C            4.00747722254930        0.67241328291055        4.59677871481898
C            3.84295924638540       -0.57832745655760        5.13936394071932
C            3.13717468456700       -1.57170590771243        4.45711681811233
C            2.58117863498069       -1.32688205279596        3.22537839113108
C            2.73299283559392       -0.05808740943219        2.66316654512332
H           -0.37864694465687       -1.08392041238657       -0.00884849745027
H           -0.39889775136662        0.40662658684431        0.93190101272800
H            0.06579053300181       -1.09908934197704        1.69480626793679
H            1.66661041245164        0.29405838967351       -0.52923387840550
H            2.13316472179196       -1.19729783491516        0.25084703802632
H            0.46015713673182        2.49423513214822        0.13926219991517
H            0.19273964869079        3.98080230938236       -1.77701591771557
H            4.04465359446198        4.93648342455835       -3.94651435468476
H            3.79786562158123        6.48413564150823       -5.80905605754849
H            2.41823566136032        6.65565682833836       -7.86677198727617
H            2.36851791485898        8.23047198650837       -9.73978635321195
H            0.28137969625330        8.68912036230888      -10.64626966345963
H            0.13336117837045        9.33296007680264      -12.26424309637225
H           -1.51582226893865       10.25901508873632       -9.84292793928090
H           -2.12886128877673        9.23705133740593      -11.14302019344073
H           -1.67373778134492       10.90932162776439      -11.46344224823949
H            0.11896259194070       11.44956376562278      -13.51079849482974
H            0.79761265716859       13.61455302009381      -14.46946425455612
H            2.23795801351793       15.14613514058467      -13.20334488834792
H            3.02224425941795       14.55217614224156      -10.94547847486299
H            3.06695108550830       12.13436348123419       -7.78071034023085
H            3.13029801865416       13.64255334569916       -8.66166947788868
H            4.82688305737504       11.16064190765687       -9.29680815292785
H            5.43400598314186       12.61119886377738       -8.49794780468126
H            4.90529798494198       12.67482759907181      -10.17768680962793
H            1.00722053389871       11.30669101258007       -7.11644238214383
H            1.11196601413703        9.74800696247777       -5.23412286780747
H           -0.70765170393975        7.95721324756375       -5.52260762665132
H           -0.51904403124973        8.59588151135139       -3.88459235265417
H           -1.34750273633940        7.06522607822710       -4.15344986462829
H            0.15238011865313        6.00021129955751       -2.56833785800420
H            4.40863601874489        4.66203177230977       -1.82886900643083
H            4.67573547796972        3.12491021836545        0.04644774163348
H            4.15301986229424        4.00446584671804        2.09349429920833
H            4.92013341345370        3.24298836326873        3.46712670784081
H            2.00660704897545        4.21656384963017        3.39304927522605
H            3.31907096186903        5.05071556663502        4.22449465139086
H            2.77416234244649        3.46990192407428        4.78148435297953
H            4.56137113668495        1.43561808654595        5.11328933100732
H            4.27009304364341       -0.80046160880350        6.10390590247519
H            3.03037460476238       -2.54646200755051        4.90496066413842
H            2.04656037661490       -2.09330311471281        2.69383181945584
