84
 energy: -14.083520686332 gnorm: 0.000458974938 xtb: 6.5.0 (97a52f5)
C            0.82462437454934       -0.56615998385948        1.39306022964216
C            2.00637367150146       -0.15252832186803        0.54286484177739
N            2.60283973091724        1.11724377612732        0.98844303808814
C            2.57427943431957        2.32743976559796        0.32179914062621
C            1.87849518672757        2.60372790726144       -0.93080674497865
C            0.50415591067984        2.36041248409633       -1.07198191174652
C           -0.14096189774240        2.62215792753555       -2.25085608104254
C            0.55043390666538        3.12556327208990       -3.36405444621248
C           -0.13925153827156        3.39604959382731       -4.63205881798283
C            0.52636343009598        3.28390559762616       -5.86057532347097
C           -0.11759117925326        3.53140156878804       -7.04459739693971
C           -1.46388211519993        3.92077052279466       -7.07446520078924
C           -2.15001906950692        4.19534909797823       -8.34331436108533
C           -3.20207789893751        5.12184867719903       -8.41675466138162
C           -3.83456179667919        5.38659231032993       -9.60160519149533
C           -3.46072989908670        4.72899227960343      -10.78326011751592
C           -4.13658674736760        5.00674734393323      -12.04631778865120
N           -4.28440819000645        6.24958945010881      -12.63204602415854
C           -3.63342610777775        7.50185263049609      -12.21559350815440
C           -2.30959905890976        7.70626982378856      -12.91846487311038
C           -4.98056698173741        6.09683585369096      -13.83639649778791
C           -5.38561386154237        7.01109536202784      -14.81042200116213
C           -6.07989372730385        6.54643089592142      -15.90042546019851
C           -6.37867865999219        5.18924560179772      -16.03892109804816
C           -5.98647581779702        4.27721438978305      -15.09002307830680
C           -5.27772715421211        4.73330886367220      -13.97723206378169
N           -4.73749890794655        4.07241293202858      -12.86822348967403
C           -5.00037732316099        2.66024905281625      -12.54885484341986
C           -6.35196868005638        2.47592238894127      -11.89499215986833
C           -2.41517389644072        3.79617659379405      -10.71214911688791
C           -1.77568416304510        3.54304513781182       -9.52861796618454
C           -2.12776561596561        4.03897658552566       -5.84543928183039
C           -1.48774142060829        3.77751107702468       -4.66207670265165
C            1.92728964652823        3.35829635275738       -3.22232788675869
C            2.57152581579146        3.11161899414898       -2.04016610217591
N            3.35805091092565        3.22074915689251        1.02680422011032
C            3.47194286285540        4.66950544383977        0.79390990889399
C            2.48206676063097        5.45172262269809        1.62845267793440
C            3.88248558976598        2.56915792149314        2.14845986172172
C            4.72168505718464        2.99989827941864        3.17743492210290
C            5.09189559534861        2.09817102349653        4.14470269331709
C            4.64413269091586        0.77597318035941        4.10550488825422
C            3.81465753993104        0.33821102832261        3.10227394504208
C            3.42222906784916        1.24455987762119        2.11566662149969
H            0.38481335959268       -1.50630487633684        1.05459065623566
H            0.04226238141751        0.19268682064913        1.37401847179152
H            1.11538435848853       -0.69423691589941        2.43600240672243
H            1.71809155459013       -0.04563749325855       -0.50740993112821
H            2.79164105068738       -0.91525149439073        0.56175921797186
H           -0.04406561037745        1.98137938897938       -0.22790971666646
H           -1.19238717973844        2.41321999948916       -2.33834233203598
H            1.55578797363125        2.97179688774845       -5.87187223241579
H            0.42536446966218        3.45184080384863       -7.96979911392180
H           -3.49629170291971        5.65201656211570       -7.52844574689260
H           -4.64725403946909        6.09111732524731       -9.63614664574988
H           -3.49910319712290        7.48072678888306      -11.13066142806026
H           -4.32257282878865        8.32755400671451      -12.41866701437138
H           -1.62558076349749        6.88398540567098      -12.70499609856380
H           -1.82114723023742        8.63448953842045      -12.61577265599824
H           -2.44240387517883        7.73777337915308      -14.00054464033131
H           -5.15908188785285        8.05614180724096      -14.69812423278907
H           -6.40111421022862        7.23923120011568      -16.66136775804187
H           -6.92451959322991        4.85367539535965      -16.90589144172354
H           -6.21006695909793        3.23093803971834      -15.19654480543659
H           -4.20004794691352        2.29519078724930      -11.89942662219398
H           -4.92531740707122        2.08184639113369      -13.47499365453146
H           -6.41645528745522        3.04822872247028      -10.96878515076868
H           -6.55532295931683        1.43023493619018      -11.65633480124790
H           -7.15240066403103        2.83056074302247      -12.54542676341724
H           -2.10464047936190        3.29646378262752      -11.61317384220103
H           -0.98767078289190        2.81171116747122       -9.49765267492889
H           -3.16713639956111        4.31598531573524       -5.83629606745100
H           -2.01995770720680        3.89190035796785       -3.73425421114480
H            2.47908329391342        3.76126205706003       -4.05299061234065
H            3.63121664794331        3.27942604179702       -1.95617755571507
H            3.32209376493201        4.86452930662918       -0.27148530105609
H            4.50142500057389        4.96916331616862        1.01384380440399
H            1.45855498724883        5.15474253071286        1.39647607155298
H            2.56321142176881        6.52780397403347        1.46328478555329
H            2.63479824436521        5.26640512656876        2.69230410174035
H            5.07335037076911        4.01574638764660        3.19841579937447
H            5.74318467877091        2.41274659517943        4.94411497129489
H            4.95802032457168        0.08856710598294        4.87435918540357
H            3.47704935404086       -0.68178155441676        3.06458678743936
