150
 energy: -32.362670534056 gnorm: 0.000626559201 xtb: 6.5.0 (97a52f5)
C            2.23959567018523        0.27464460785623       -2.56219574163663
C            3.14737728342714       -0.91446616217296       -2.33680902128234
N            3.49571892829329       -1.59586600844840       -3.59495219530794
C            4.27790985788192       -1.06417936661252       -4.60276083319078
C            4.86803698926267        0.28274474712282       -4.62085116655593
C            4.60842563041203        1.15289655200123       -5.68120699418139
C            5.17911769284431        2.40100116161919       -5.72543382726355
C            6.03396259812887        2.83431052484985       -4.71137113989313
C            6.66381137057691        4.16997550093271       -4.76914428495023
C            7.10298689989637        4.70083327641985       -5.98894570189500
C            7.70277040035490        5.93858188036555       -6.06201952866924
C            7.87553125446301        6.67119309547835       -4.89591711863962
C            7.44573215724623        6.15616006226583       -3.67146474221871
C            6.84174533434114        4.92098011041643       -3.60458843990389
C            7.76312296752926        7.15677513699557       -2.55231506562099
C            6.45398687720598        7.59631419876690       -1.89115469537604
C            5.77347930341592        8.72303992252755       -2.32727553032883
C            4.56934150260823        9.08692017033737       -1.76096976547286
C            4.02072606267741        8.32019602711120       -0.75455652214915
C            4.67637084945161        7.18678419107516       -0.32180451477927
C            5.88012105719781        6.82609171052994       -0.89104791740298
C            8.75276182795110        6.58343243170524       -1.53401104122935
C            8.92049534214886        7.19357267546009       -0.30025654319936
C            9.83774199839199        6.71073828478305        0.61007667734207
C           10.61094805443004        5.61335658015702        0.29457616486625
C           10.46770710942614        5.00508222824835       -0.93473146779433
C            9.54950165168173        5.49106255259648       -1.84232732232479
C            8.43534281054764        8.30317618775345       -3.32132489516492
C            8.95536302802842        9.49640668251513       -2.86324390278033
C            9.51338143598726       10.37827041875870       -3.77080568442012
C            9.55456840272031       10.07148434134924       -5.12167049074627
C            9.04094214209236        8.87869259884183       -5.58868084766371
C            8.47927117649127        7.99062641048305       -4.68175831705918
C            6.28958725080392        1.96558125124567       -3.64902402167950
C            5.72099065864331        0.71537360873830       -3.60481153327144
C            4.33325724107078       -2.00080690080110       -5.64526163002752
C            5.02577895424522       -1.82345780201440       -6.93287708363937
C            6.30229432670508       -1.21405266792638       -6.98805681016861
C            6.95362377441507       -1.04618505535233       -8.16875172926317
C            6.37267872298686       -1.48212159563747       -9.38285539917610
C            7.02334608006659       -1.33137522400725      -10.62686949359575
C            6.43432724594516       -1.76867383379749      -11.77586720887787
C            5.17222160318899       -2.37560173023530      -11.74099547845547
C            4.51543770687621       -2.53558854414322      -10.55858986354961
C            5.09626028453227       -2.09268341712238       -9.34772328028925
C            4.44526343073710       -2.24471192975549       -8.10799004976164
C            3.57910690173091       -3.12889098632187       -5.24154920597199
C            3.36551025064934       -4.37031054323220       -6.00578394098795
C            4.42853847869517       -4.97515142437337       -6.71858357814398
C            4.24570083873288       -6.12853467357716       -7.41377609766057
C            2.98307481212426       -6.76678100282637       -7.43618249763865
C            2.75847102089440       -7.97139352041796       -8.13768481002932
C            1.53046350914233       -8.56337374155232       -8.12591375508677
C            0.46971544816889       -7.98575204000505       -7.41608935460141
C            0.65024084908263       -6.82287565245378       -6.73055371928163
C            1.90992716624190       -6.18035780600740       -6.72395365805752
C            2.13061679916469       -4.97892557323169       -6.02360085873328
C            3.05634659240195       -2.85114672117289       -3.97044259296686
C            2.21780694568916       -3.75712354541066       -3.17136247538975
C            2.61139451103500       -5.07873383218233       -2.95152911575893
C            1.79417795569415       -5.95647528557672       -2.28262403742898
C            0.54952115164545       -5.55001990903905       -1.80103707754882
C           -0.34734894527202       -6.50138098550812       -1.11254781802471
C           -0.46264556661880       -7.82574435738148       -1.55445058307665
C           -1.31252978968597       -8.71867392090116       -0.93962705108455
C           -2.07001788828309       -8.28988171976151        0.14174905452179
C           -1.96504383432268       -6.97367962045902        0.59533101727533
C           -1.11154675979355       -6.08640898051703       -0.01963028904151
C           -2.90323258751422       -6.76346373323053        1.79063058749533
C           -2.06625981020008       -6.39153518501289        3.01781278934744
C           -1.63178311097711       -7.35924907653753        3.91091324934861
C           -0.83338088796963       -7.02478371762271        4.98505347143293
C           -0.44687687181306       -5.71486827707784        5.17576766393094
C           -0.85646819699876       -4.74325952033204        4.28699530115658
C           -1.65502580483625       -5.08192472650826        3.21422170745760
C           -3.98104504294447       -5.71693353543023        1.49470468856926
C           -4.69476152725372       -5.13191349188202        2.52948680264939
C           -5.69282359379804       -4.21503706606576        2.27187625416154
C           -6.00125940820403       -3.87776109548185        0.97074914076696
C           -5.31279924347839       -4.46446349503299       -0.07013755422389
C           -4.31503863949512       -5.38041240977830        0.19148634750002
C           -3.55992107793035       -8.14344615656233        1.93519184354523
C           -4.50997455137323       -8.58554076178945        2.83287476082698
C           -4.94053539688645       -9.89785975758823        2.76271254445168
C           -4.43044009469839      -10.75958531146500        1.80455923952521
C           -3.48321996104449      -10.32508453772989        0.89968865826158
C           -3.04656844829636       -9.00925121054573        0.96684612730563
C            0.16326607866724       -4.22445390623014       -2.00629081887026
C            0.97828359640130       -3.34664985200155       -2.67920932031454
H            1.95863724680716        0.76165251311446       -1.62587942480707
H            1.32233927815737       -0.02419137640267       -3.07139716631886
H            2.72309537377273        1.02289359201744       -3.19201438311084
H            2.68101549840079       -1.64448885920202       -1.66763220870255
H            4.07496259359495       -0.61444932991848       -1.84039009856033
H            3.95403020546643        0.82645175913629       -6.47122719085256
H            4.96010247315600        3.06305464101794       -6.54520422111868
H            6.98181178872949        4.11523407084026       -6.88373752778998
H            8.04045529274993        6.33890350753153       -7.00175086452737
H            6.50141864653656        4.54322251241542       -2.65833075973084
H            6.19260793373252        9.31424676960827       -3.12264309892716
H            4.05589814594952        9.96890703704596       -2.10785850828087
H            3.08008227564344        8.60313580498857       -0.31065488544906
H            4.24761772309419        6.58113925328235        0.45998363126246
H            6.38863584170384        5.93775431345843       -0.55767104908184
H            8.31947922656944        8.05250999433304       -0.05560085589396
H            9.95088632773397        7.19285460493143        1.56746994918115
H           11.32804064921092        5.23487080676029        1.00482369044250
H           11.07512286608839        4.15136278533563       -1.18779649505889
H            9.44875453017561        5.02254616096950       -2.80569329680941
H            8.92008431555936        9.72775199428492       -1.81325883809063
H            9.92106757869028       11.31325547290482       -3.42276499492641
H            9.99327256589482       10.77061990788493       -5.81480547206982
H            9.07040706090355        8.63006748838121       -6.63498286187409
H            6.96314158708620        2.27713394322614       -2.86939574834299
H            5.95651056141668        0.04206820189833       -2.79924331665695
H            6.75303457150132       -0.88146211631514       -6.06917042072306
H            7.92301193987395       -0.57908939385914       -8.19365354970444
H            7.99365399434233       -0.86602779564376      -10.65456847426800
H            6.94131453087713       -1.64864015976215      -12.71940831903326
H            4.72042827143533       -2.71765745396570      -12.65786319881107
H            3.54657830517030       -3.00392549042385      -10.53052335561048
H            3.47401817513742       -2.70403915506930       -8.08030818383132
H            5.39510109264829       -4.50212086081071       -6.69927995344413
H            5.06339631250091       -6.57378897220339       -7.95376132395953
H            3.57334473020269       -8.41755424163859       -8.68147598581466
H            1.37138197090363       -9.48339478565510       -8.66438406449053
H           -0.49437680777742       -8.46774937821987       -7.41407713354066
H           -0.16311229373731       -6.38020024713119       -6.18158027653660
H            1.31646033954630       -4.53362856416090       -5.48167290993106
H            3.56333841241655       -5.40649736046314       -3.33275963473983
H            2.11296303785459       -6.97167080311290       -2.12102678938021
H            0.11490672407047       -8.14039591766317       -2.40637614690176
H           -1.40016177177561       -9.73330369869924       -1.28629759573279
H           -1.03027371687844       -5.08015128705379        0.34740992143700
H           -1.91899072775980       -8.38443096115038        3.75530761178348
H           -0.50864527277445       -7.78845850105776        5.67294515094516
H            0.17788663440626       -5.45183633961703        6.01387612407652
H           -0.55048601732929       -3.71940244527270        4.42804779990880
H           -1.96923575600908       -4.32426239553691        2.51702746164707
H           -4.45696202385148       -5.39920062576864        3.54480798761017
H           -6.23299350622147       -3.76313940845293        3.08782707103378
H           -6.78087147741405       -3.16159147548074        0.76765872743970
H           -5.55645584331811       -4.20913550414810       -1.08863286798322
H           -3.78754247316095       -5.84643489061516       -0.62237473048831
H           -4.90058501709694       -7.91037136381856        3.57377322976941
H           -5.68054597896337      -10.25347398181425        3.46091321377289
H           -4.77790795604746      -11.77902088071567        1.76455652918784
H           -3.08337135858803      -10.98530181787757        0.15023367937735
H           -0.80174167976351       -3.90134245929724       -1.65563077499160
H            0.65093423464215       -2.33902306151167       -2.86673786272447
