146
 energy: -31.991365657307 gnorm: 0.000397540515 xtb: 6.5.0 (97a52f5)
C            2.47093031501316        0.27450877449429       -1.45464970438526
C            3.25278221201348       -0.90057999997202       -0.91092879762872
N            3.47216167000417       -1.93832136508513       -1.93029500715578
C            4.27043128168792       -1.80720718798772       -3.05047089719507
C            5.04500687511512       -0.61911535254621       -3.44204270680118
C            4.82583317006102       -0.01659734088913       -4.68174759503161
C            5.60442791361822        1.03249074045321       -5.10311088745917
C            6.64167579004854        1.52218380093053       -4.30800193749261
C            7.51811697706462        2.60777059359534       -4.79486839440965
C            7.81586414335734        2.72307992881430       -6.16004734999158
C            8.63583362763179        3.71971667967858       -6.64151986153624
C            9.18416177059778        4.62761561191943       -5.74719512505037
C            8.90344363188146        4.52147682053117       -4.38319986083060
C            8.07948788945429        3.52847878630191       -3.90573582711730
C            9.64594637865921        5.62661002181025       -3.63469815433902
C            8.71143479657908        6.51864692982670       -2.81952107287762
C            7.63874261067572        7.28638705794698       -3.22074874499907
C            6.94843598078552        8.01607842106737       -2.27023664679075
C            7.32620052490706        7.97766747584910       -0.93698781941934
C            8.39896007161222        7.21011208401418       -0.52888393500858
C            9.09571887326233        6.47573982346513       -1.47768459141958
C           10.26109036902691        5.58774601665332       -1.33282464538768
C           10.98806773648163        5.22980238954369       -0.20651401276794
C           12.05314366001918        4.36262944175310       -0.34907924614047
C           12.39306069344010        3.85580357459349       -1.59377626916267
C           11.67227114296536        4.20844229190566       -2.72001166600289
C           10.60824827434820        5.07482631238748       -2.58409278098233
C           10.36531580534079        6.38301490466286       -4.75083422929080
C           11.18793035501805        7.48788021785184       -4.69241797106861
C           11.72480593156640        7.98282572433087       -5.86712304530804
C           11.44347831162515        7.37975618064437       -7.08338767975240
C           10.62171861506446        6.27240519757864       -7.14883822287415
C           10.07910135139215        5.77143569967099       -5.97364560366880
C            6.84541497203106        0.93261614353953       -3.05841707295885
C            6.06316467792068       -0.11444027823566       -2.63224335258705
C            4.15180184785230       -2.98241276723479       -3.80668420756923
C            4.80162641410463       -3.23976087123358       -5.10340010320567
C            6.15486278571511       -2.88189043967136       -5.31410215114880
C            6.76650857707549       -3.10670281063053       -6.50630026469374
C            6.06391680562011       -3.70993090280319       -7.57580161520978
C            6.66847736385945       -3.96346677026004       -8.82625837167839
C            5.96060290394574       -4.54805217830357       -9.83389521438865
C            4.61977132366350       -4.90705488228887       -9.64487687214130
C            4.00498905952063       -4.67669632351448       -8.45156591472510
C            4.70897646870606       -4.07207861225112       -7.38459361078024
C            4.10363304700406       -3.82123059402647       -6.13772262341875
C            3.27175604616959       -3.84592466719576       -3.11275307830819
C            2.85671591170583       -5.20132977041273       -3.51269193256918
C            3.77797516560671       -6.09944813791882       -4.10304296469321
C            3.40919328184324       -7.35962844799896       -4.45434411481737
C            2.08908654214780       -7.81650520679458       -4.22881504122532
C            1.67220874044228       -9.12177815815332       -4.56944415937947
C            0.39428374741958       -9.52862867754445       -4.32418157929461
C           -0.52739120163327       -8.65805517544943       -3.72799143582033
C           -0.16012537042260       -7.39132887393363       -3.38873937813258
C            1.15583558286818       -6.93539064854832       -3.63331627872271
C            1.56786299805760       -5.63316217903368       -3.29332917592264
C            2.85150424309893       -3.17229420242068       -1.95662715784712
C            1.91875296769445       -3.71568477162137       -0.95389625424196
C            2.21457990702077       -4.91041885473230       -0.29436415070846
C            1.27857388255084       -5.52816122633162        0.49768542504010
C            0.00389911399645       -4.98342471147810        0.66147874173242
C           -1.03455207371737       -5.70766960278368        1.42354064302661
C           -1.07153163316306       -7.10921479994877        1.41585719134629
C           -2.04260145057699       -7.81225698684292        2.09415806642807
C           -3.01153727141005       -7.11030937162577        2.79652038567756
C           -2.99180189250474       -5.71378207833896        2.80870531614068
C           -2.01690104864436       -5.01411455064100        2.13564532707265
C           -4.17462453058088       -5.20648224597858        3.63114488395213
C           -3.74712902043098       -4.30861614448313        4.79062760254533
C           -2.90847968954542       -4.56684606772805        5.85411651788151
C           -2.68794820967853       -3.56977864257949        6.78664205444579
C           -3.29815639320745       -2.33185149345812        6.65656413765849
C           -4.13829691090188       -2.06695993703584        5.59329687202218
C           -4.36355166383396       -3.06307906257933        4.65414154871379
C           -5.19950024576908       -3.06350215617234        3.44218748801141
C           -5.99146576660466       -2.06568674517331        2.89232551823477
C           -6.68090614320004       -2.32978350510901        1.72544636494956
C           -6.58553442897574       -3.56851561373705        1.11051957066652
C           -5.79800460455466       -4.56711402757379        1.65360682607583
C           -5.10850547061423       -4.30992022796527        2.81968361982114
C           -4.85400478670125       -6.49326273285547        4.09791636216250
C           -5.97223468105909       -6.67628334486372        4.88333637402509
C           -6.38805355992919       -7.96568776799034        5.16190616947654
C           -5.69504226068072       -9.05685647081708        4.66068452300353
C           -4.57513301358861       -8.88063382742114        3.87288938434425
C           -4.15213522270523       -7.58918058923083        3.59048618978532
C           -0.27609141927607       -3.76632348637103        0.03612105592524
C            0.66123041431377       -3.14309751520249       -0.75307217383569
H            2.28996374981524        1.03672936801852       -0.69373186186724
H            1.50317877380852       -0.04651416812186       -1.84255745304167
H            3.00295569472960        0.75004497968790       -2.28001338454418
H            2.73403417820220       -1.35897255136230       -0.06255066020525
H            4.22834816756779       -0.58389681722277       -0.52926887008293
H            4.04358419179454       -0.40105996027076       -5.31368103105119
H            5.41455956986919        1.48759825381512       -6.05956839680157
H            7.40743309568919        1.99985835044817       -6.84416031145929
H            8.85938003541732        3.79938945202947       -7.69086377604612
H            7.86464465538450        3.47714231166586       -2.85440213950083
H            7.35602195597384        7.30792746285139       -4.25875288919988
H            6.10911502230982        8.62186083082132       -2.57034619836565
H            6.77700676247701        8.55397477242317       -0.21045594476979
H            8.69925637583899        7.17532492800722        0.50361038501808
H           10.71707408188855        5.62722987213324        0.75578679686179
H           12.62633247099948        4.07661415204582        0.51766730490015
H           13.22737823513340        3.17978586794165       -1.68575424591784
H           11.92494602819668        3.82124826602086       -3.69166056956709
H           11.39980338558111        7.94624614616739       -3.74225519542059
H           12.36847330308054        8.84666180952635       -5.83576917183053
H           11.87096496025401        7.77945530732778       -7.98845327850660
H           10.39831846922977        5.79784964086056       -8.08816853095886
H            7.65091586091604        1.28496672255231       -2.43785791366032
H            6.25618462475855       -0.58539757965380       -1.68403419856638
H            6.69630351761088       -2.42082966369928       -4.50637601363039
H            7.79569293862924       -2.82683922810932       -6.65103779342887
H            7.69898945210197       -3.68852480325666       -8.97208071099698
H            6.43305155993000       -4.73728154097383      -10.78397856879974
H            4.07374340295233       -5.36843653462442      -10.45154593458263
H            2.97507540246151       -4.95364101126472       -8.30543517408841
H            3.07353957945900       -4.09084190182054       -5.99142068653091
H            4.78798415119743       -5.76609885656096       -4.26703843037199
H            4.12164204863622       -8.02901894559550       -4.90462118612646
H            2.38026109810349       -9.79284274483060       -5.02448925683008
H            0.08796133965082      -10.52771225281228       -4.58809921106547
H           -1.53290728277354       -8.99611225772213       -3.53717031072307
H           -0.86544254544501       -6.72291718343732       -2.92540455867935
H            0.85848403124184       -4.96704454130782       -2.83835003262288
H            3.17972357548916       -5.36202805407114       -0.44843973394928
H            1.52310106318642       -6.45235463021778        0.99180200754869
H           -0.33426401944804       -7.64534764209848        0.84402785278353
H           -2.06436101824509       -8.88779346848805        2.08029091781868
H           -2.01421714656131       -3.94037169852310        2.17018763975747
H           -2.44197723598338       -5.53230885642878        5.94417345227516
H           -2.03615538169488       -3.75865754090715        7.62388705206584
H           -3.11576174843536       -1.56749438334126        7.39417197934420
H           -4.61681130496805       -1.10942707390115        5.48569406512967
H           -6.05912208741357       -1.10687877445805        3.37556457753689
H           -7.29982767381601       -1.56356747024031        1.28788675482958
H           -7.13027703817032       -3.75620442678090        0.19970798610828
H           -5.71458700034171       -5.53246283336497        1.18562921336242
H           -6.50207405166453       -5.82133322284681        5.26561708237472
H           -7.26005076444526       -8.12293365407212        5.77542856344535
H           -6.03401155757168      -10.05433688651570        4.88824283538827
H           -4.03147873749740       -9.72160047879673        3.47962280721386
H           -1.25744558790533       -3.33722018786856        0.14049584310633
H            0.41618179442386       -2.23202093308106       -1.27083511407750
