14
 energy: -2.053062272040 gnorm: 0.000331985563 xtb: 6.5.0 (97a52f5)
C            0.70309661384163       -1.17790945433753        0.25724541426212
C           -0.74002866900513       -1.16283509902195       -0.25109147898611
O           -1.39896078706465        0.01721957836777        0.17542360110853
C           -0.71479490827307        1.18212270026858       -0.25320723130830
C            0.72910362826345        1.16644071811417        0.25349509119041
O            1.38726752762599       -0.01386689641551       -0.17338899142782
H            1.26149189518747       -2.04942936444596       -0.10743838946949
H            0.73211755293714       -1.19713887279074        1.35235669415481
H           -1.31708640044416       -2.02136350029147        0.11528552314236
H           -0.76920755717756       -1.18427635007170       -1.34617254392642
H           -1.27207619906987        2.05251641539735        0.11586224982406
H           -0.74554812144999        1.20469325004541       -1.34818003061087
H            0.75981362495063        1.18871346412066        1.34852543349853
H            1.30611179967811        2.02449341106092       -0.11409534145179
