100
 energy: -21.496343511391 gnorm: 0.000580697194 xtb: 6.5.0 (97a52f5)
C            1.67823688117480        0.83048114105784       -0.64658017839843
C            2.76916425486743       -0.16206334164451       -0.31026767845505
N            3.07301876669643       -1.05623788910536       -1.43943096258322
C            3.65968025533174       -0.67735204936416       -2.63154036736023
C            4.07727291208813        0.68579561198519       -2.99223657936344
C            3.56756738265383        1.30326675207489       -4.13648592632182
C            3.97919969678710        2.56127036041886       -4.50051060897225
C            4.92405794988812        3.25173227077242       -3.74012201307870
C            5.38088907535578        4.60234472950066       -4.14835335530452
C            4.46864930876526        5.62878394748642       -4.26752201774406
C            4.86253971143922        6.91501048919599       -4.63714658252969
C            6.17190489192213        7.18990483073791       -4.89687973634356
C            7.15152393962785        6.17664136257604       -4.80548530386274
C            8.51296155572989        6.43338208769905       -5.08740216911495
C            9.43841855900342        5.43650354015661       -5.01605960541897
C            9.05230153827359        4.13848250359526       -4.66452126884520
C            7.74850081546685        3.85939098707421       -4.38222201387450
C            6.76057936256843        4.86720840958513       -4.43411938923930
C            5.42646280388784        2.63811333952020       -2.59087156923828
C            5.01279682138765        1.38084288667755       -2.22431510588828
C            3.70528454524889       -1.80260249111681       -3.46853058707409
C            4.20483166913254       -1.82744885151980       -4.85363529942528
C            5.37945991637738       -1.12215022767102       -5.21005767468410
C            5.85290587411379       -1.13784768931156       -6.48359017079312
C            5.18344737156474       -1.86724848501541       -7.49430217884824
C            5.65059891676038       -1.91376096484064       -8.82589117513023
C            4.98096981998032       -2.63114005252441       -9.77209942268488
C            3.81642399230823       -3.33477176227446       -9.43843619146234
C            3.33681032454699       -3.31061314308583       -8.16396052325256
C            4.00557331701701       -2.57611434164633       -7.15750294498256
C            3.53741753271046       -2.53217351205916       -5.82991143440717
C            3.14812439302895       -2.88757126133406       -2.74942153618573
C            2.98699921075969       -4.27668499985302       -3.21260572022367
C            3.99696669741996       -4.90980343326658       -3.97621221777043
C            3.86410665960816       -6.19625278138669       -4.39398371218427
C            2.71139783743817       -6.94819613931357       -4.06525517572764
C            2.54413737959597       -8.29018671263519       -4.47106467169304
C            1.42537635890238       -8.98690718354101       -4.12238426090099
C            0.42204883221760       -8.38236478444873       -3.35390659349808
C            0.54924983784467       -7.08869013115371       -2.94829477428750
C            1.69467604830115       -6.33548507561898       -3.29502093305483
C            1.85876582164787       -4.99726859602780       -2.88955146865777
C            2.75194170891818       -2.39807648261105       -1.49636628216891
C            2.11981218745101       -3.19100750889658       -0.42958102458997
C            2.74907547275313       -4.33311194813852        0.07167760307117
C            2.10922970326780       -5.15265224556013        0.96800634697621
C            0.81114500872256       -4.86736788615999        1.39357922549968
C            0.08288398672691       -5.80860692696362        2.28038586638677
C            0.49562910894264       -6.00580819945435        3.58020468252620
C           -0.17125554279926       -6.89204546658354        4.42692334472748
C           -1.25074387557198       -7.59632503972036        3.98240483899884
C           -1.71133945534063       -7.44668779557946        2.65546793435428
C           -2.81498602611212       -8.17933866649105        2.16122188921792
C           -3.22736031177568       -8.03131599078643        0.87111065048490
C           -2.56256091413223       -7.14859023183943        0.01267336677236
C           -1.49854585477261       -6.42441776181804        0.46015094779234
C           -1.04331712242719       -6.54713462325131        1.79100296038027
C            0.19328792302272       -3.70972325549866        0.91621740041568
C            0.83503592788258       -2.88623736697013        0.02422776177171
H            1.43488384504316        1.47750927908538        0.19900158997599
H            0.76370296924173        0.31834293623658       -0.94884889404926
H            1.97446364390333        1.47052578579629       -1.47904759040008
H            2.48737700600191       -0.77956819850769        0.54886733191948
H            3.69171183434598        0.34843754003592       -0.01785167089322
H            2.84922289451535        0.77139232347213       -4.73637150819035
H            3.58733027358276        3.02477223394485       -5.38952501636213
H            3.43232172479835        5.42701284316024       -4.05695628055724
H            4.12370758986401        7.69594466041887       -4.71481492027085
H            6.47394111366988        8.18312719964549       -5.18157503050933
H            8.80819523395039        7.43094456632326       -5.36408581063675
H           10.47308751412646        5.64435340569273       -5.23525510064491
H            9.79270583864590        3.35646792915699       -4.61955375503684
H            7.45700187027571        2.85634471593889       -4.12541053479549
H            6.14760445870901        3.16776944799325       -1.99217023591961
H            5.42900226008392        0.90562999392554       -1.35320451839918
H            5.89628283264137       -0.56580513356116       -4.44749237371424
H            6.74632412517150       -0.59447722361016       -6.73869868344593
H            6.54590403372349       -1.37425863425756       -9.08315771881694
H            5.34753380045246       -2.65986312410777      -10.78524484416674
H            3.29925868616803       -3.89837620882867      -10.19784786230635
H            2.44333951529750       -3.85309562217352       -7.90653962150729
H            2.63954618929975       -3.06465375513292       -5.57410829084867
H            4.88273638744336       -4.34996686203835       -4.22165152951759
H            4.63973197011845       -6.66122339952872       -4.97761034656172
H            3.31600942743053       -8.75690272068668       -5.05858689342617
H            1.30995704411989      -10.01140907296506       -4.43660825308834
H           -0.45406815648674       -8.94817800008701       -3.08176097475776
H           -0.21816251294413       -6.62648751258788       -2.35228439683554
H            1.08660356580317       -4.53328523372784       -2.30407094335623
H            3.73600268292159       -4.57880701665882       -0.28121707344378
H            2.59018079779594       -6.04591044098909        1.32787832488346
H            1.34710978519861       -5.45563628337924        3.94236542426708
H            0.17242371068413       -7.01940497028273        5.44050946177814
H           -1.76211251931410       -8.28057272314588        4.63739103643121
H           -3.32400409136680       -8.86116256098057        2.82060706038543
H           -4.06922863616306       -8.59685271362982        0.50612179958119
H           -2.89637902295652       -7.04344222934352       -1.00679308395203
H           -0.98830919090932       -5.74810530058395       -0.20250117527862
H           -0.80673775250252       -3.48217446399937        1.24353819529540
H            0.33661649336531       -2.01723741007422       -0.36841170661344
