124
 energy: -26.694934836156 gnorm: 0.000519009703 xtb: 6.5.0 (97a52f5)
C            1.93138165082137       -0.58360850208716        0.87194592312932
C            2.80901679997664        0.29654520606943        0.00948601232296
N            3.22687072610793        1.52142382179592        0.71253112850392
C            2.78403023171185        2.79741759260306        0.41655466563781
C            1.90937945846893        3.17530009688399       -0.70231864850029
C            2.29719423301098        4.17753803345827       -1.59566151941717
C            1.45478006610262        4.59314324800618       -2.59502918752789
C            0.18987397910612        4.02583047897601       -2.73981165052564
N           -0.73252256107218        4.53207899642099       -3.71172336509850
C           -0.25693650521408        4.95186915313867       -4.99987781180099
C           -0.86920582252490        6.00829848438555       -5.66849961912415
C           -0.41614378200804        6.41489280796788       -6.90340112439973
C            0.65511404226364        5.77262561534881       -7.49342653561696
C            1.27092127922544        4.72046283939357       -6.84387547298773
C            0.81942367232810        4.31236363159450       -5.60887169957923
C           -2.13774606798014        4.57443653845513       -3.42579042869308
C           -3.03764171483720        4.10161273595902       -4.35889878079427
C           -4.40583505119646        4.08255045272114       -4.10459884220285
C           -4.89600992007918        4.53960979094632       -2.91542712354233
C           -4.02664926669846        5.05378761445489       -1.92883635808565
C           -4.51167233662725        5.55014643122410       -0.69761612574845
C           -3.65784479126931        6.06876708077045        0.22979577464433
C           -2.28547658962781        6.12398603568758       -0.02875820238513
C           -1.78720262516016        5.65045737649636       -1.20668138052494
C           -2.63354825409295        5.08659450439567       -2.18275897453573
C           -0.19169433757879        3.01143875969664       -1.86243435617554
C            0.64965286270938        2.59443143369893       -0.86198554701559
C            3.35887958234277        3.67986893789276        1.33986264512255
C            3.15345098808718        5.13823145312892        1.37397604117552
C            1.86953007314604        5.69016433834420        1.14741252087467
C            1.66413096188647        7.03354305501970        1.17024199190255
C            2.73296149244687        7.92291756667952        1.42899056998966
C            2.55515755521956        9.32269579488875        1.46643347818664
C            3.60857918407762       10.15012529154559        1.72309235990337
C            4.88537511590290        9.62346883480955        1.95395590990983
C            5.09336584226753        8.27710541399853        1.92355023836308
C            4.02457989495933        7.38994961283213        1.65900008596646
C            4.20504334211353        5.99378432197037        1.61923830284771
C            4.15726873891681        2.90887282734561        2.22323272630747
C            4.92317242186671        3.40337154592711        3.37995359765025
C            4.39723099134500        4.41635742438646        4.21694467523809
C            5.08751705703389        4.87125532922681        5.29620650887812
C            6.35248167472770        4.33029776656293        5.62521611191155
C            7.09248467460814        4.76837935970809        6.74467865508216
C            8.30093432214222        4.20928955188533        7.04071068513537
C            8.82640933881334        3.18817720123592        6.23941693771374
C            8.14046286921617        2.74398153874864        5.14942828237151
C            6.88922871312049        3.30618722555829        4.80837003814387
C            6.15643507967082        2.87112507123827        3.68769065597605
C            4.06929390817041        1.57258679308903        1.80828199214107
C            4.70951149094194        0.42130420487569        2.45942662246686
C            4.60096293431760        0.23471296587942        3.84006188106142
C            5.25549623274773       -0.79630289499917        4.46468446344401
C            6.03601108001648       -1.69110794961648        3.73501819239875
N            6.76453039148263       -2.73253083261609        4.39267570125590
C            6.23248465063411       -3.33681187375064        5.58336398190532
C            7.08408762188060       -3.72596260026475        6.61363511349647
C            6.58333423237923       -4.31053367954306        7.75505417533720
C            5.22426206408899       -4.52018591954056        7.88637347330620
C            4.36733335309198       -4.14519296344231        6.86980028975582
C            4.86576383721654       -3.56025396022099        5.72744103446325
C            7.97154990421895       -3.26366791247055        3.82682124066538
C            8.12647692123837       -4.63130638511767        3.72551378316620
C            9.26176163359043       -5.19533072401307        3.15152094535104
C           10.26337784597135       -4.40067303361171        2.67400950212740
C           10.17234362983318       -2.99487581064037        2.76809666842835
C           11.20582248258708       -2.15299779550341        2.29906681018555
C           11.11171124564267       -0.79921492720956        2.42448640177006
C            9.99061383577585       -0.22331797342185        3.02856307510718
C            8.97565607989082       -1.00936479182368        3.49058544143888
C            9.02464798965672       -2.41191775024435        3.35974725378835
C            6.12908931029946       -1.51937089087196        2.35465207019089
C            5.48629169640234       -0.48064499804167        1.72939810501294
H            1.59416775704332       -1.47628168696449        0.34075693449781
H            1.04680519590073       -0.04201224364914        1.21000978344309
H            2.46382849060249       -0.91152397695358        1.76604150904721
H            2.29189471174756        0.58711506216868       -0.91041731589053
H            3.70513682077452       -0.23811599423995       -0.31785322327171
H            3.26360125538405        4.63580394351885       -1.47392589516047
H            1.74730104431718        5.38830170198252       -3.25818072389621
H           -1.69829730061661        6.50861724991881       -5.19927809961250
H           -0.89711273421903        7.23606632714111       -7.40940461426341
H            1.00967053056931        6.09189283721683       -8.45990490982625
H            2.10536306370904        4.21726223119814       -7.30455045029437
H            1.28783497669776        3.48624097417792       -5.10297657881344
H           -2.65838976404757        3.72212216081580       -5.29162662175494
H           -5.08043815000732        3.69805939416167       -4.85207118508657
H           -5.95424290677929        4.52046957961222       -2.71956581072541
H           -5.56981076259118        5.51574457625421       -0.50289820591127
H           -4.04017394680844        6.44389171745459        1.16510826559746
H           -1.62091432875841        6.54179403350931        0.70935286790389
H           -0.73210429440442        5.70499197965819       -1.40239515735019
H           -1.16987395862249        2.57612428525942       -1.96882412647450
H            0.33027556615020        1.83956802424897       -0.16507705990906
H            1.04937422105262        5.02175557733493        0.95086564575058
H            0.68353517617618        7.43837675935849        0.99018017800868
H            1.57386493537338        9.72843428808386        1.28969151593573
H            3.46045521157105       11.21738483880185        1.74958513013048
H            5.70738063915743       10.29044430609357        2.15694862892057
H            6.07437576590848        7.87187898444783        2.10284735995043
H            5.18581148374436        5.58742114719201        1.78689541876933
H            3.42900543215920        4.82443324194109        3.98426106798761
H            4.67502464128124        5.64652446800734        5.91849497486855
H            6.68745806022549        5.55000747997272        7.36416926175036
H            8.85611744162807        4.55141011858823        7.89884740283168
H            9.77921052132137        2.75116997342090        6.49033329672051
H            8.53757597895723        1.95179426023472        4.54013431479971
H            6.56652734350720        2.09650721440115        3.06592651828029
H            4.01053273979245        0.92880109983948        4.41308094820600
H            5.19354120210361       -0.91021854545609        5.53267649300813
H            8.14088819789125       -3.55481097991836        6.50477395021899
H            7.25265050992594       -4.60410933003911        8.54721135317598
H            4.83292307699873       -4.97725499653332        8.78061107892162
H            3.30728779183948       -4.31238071902284        6.96999860387982
H            4.20517476154092       -3.27814377861551        4.92623576656862
H            7.33464860618743       -5.26493792738593        4.08515067311962
H            9.34578342087416       -6.26749295403066        3.08029028243047
H           11.13952659029430       -4.83845438781871        2.22752663927512
H           12.07332644533150       -2.59777621173674        1.84253802366145
H           11.90647189218948       -0.16759357374566        2.06227408321105
H            9.93290467358616        0.84833061744421        3.12242695009116
H            8.12004914050187       -0.56281779327710        3.96369745613086
H            6.73249406151874       -2.20552096171634        1.78668899729268
H            5.61053510950887       -0.32799241046309        0.67185661691306
