76
 energy: -15.576064840827 gnorm: 0.000733540808 xtb: 6.5.0 (97a52f5)
C            1.23188808581568        0.30065036146068       -0.20684741176446
C            2.72125930173016        0.52382033509089       -0.06424262489906
N            3.18462366730625        1.69162043903052       -0.83244535927336
C            2.86481382512316        3.00746827526538       -0.55082976475568
C            1.98455237533813        3.46570722321119        0.53444628001292
C            0.86036139698766        4.24605021503284        0.25684346013295
C            0.04157880057958        4.68194237124904        1.26629405895572
C            0.30491277303867        4.36235257038236        2.60239645743281
O           -0.57912617972265        4.85000667534726        3.56804918712837
C           -0.25582075687638        4.50251918281698        4.89283907570453
C            1.43422966173504        3.58318688994999        2.87747581133452
C            2.25424913894876        3.14811303171740        1.86671079091558
C            3.45408998977359        3.81143975252511       -1.53402051493390
C            3.32160909489465        5.27303671124382       -1.65018328545033
C            3.37594076571098        6.09718387020296       -0.50098654949097
C            3.25675241794040        7.44778603626575       -0.59533536111446
C            3.07664225876578        8.07108481304277       -1.85240293907254
C            2.95902221778838        9.47108331851130       -1.98928101914983
C            2.79297019731280       10.03701458096304       -3.21869968817248
C            2.73626470267931        9.23759426708721       -4.36699476764362
C            2.84480727506509        7.88306697516224       -4.27156845988242
C            3.01748086016457        7.26281176811795       -3.01286734191758
C            3.13833415124338        5.86636309917044       -2.87960803677715
C            4.16372987330121        2.95443437912642       -2.41509398551110
C            4.95115159658569        3.36154710618265       -3.59092064193052
C            5.79481517020066        4.49676437840554       -3.53706401985436
C            6.52229014155782        4.88725077088444       -4.61665119798180
C            6.46206352551481        4.16082343071674       -5.82886988427544
C            7.20620356893956        4.53437669838730       -6.96869866421225
C            7.12919378246180        3.80467213028300       -8.11802461422863
C            6.31054616162281        2.67057531107424       -8.18607881620517
C            5.57740392321758        2.28227800907907       -7.10560498235975
C            5.63132178457914        3.01686017755707       -5.89879225641472
C            4.88592844601921        2.64315431551438       -4.76421407640929
C            3.96862837529993        1.64091099022325       -1.97108328985850
C            4.53546061165891        0.42678438477477       -2.57646414558858
C            5.90231933031286        0.33563265986025       -2.84658235949458
C            6.42855890019104       -0.78404647537353       -3.43745224780540
C            5.61727229284972       -1.86813319414222       -3.78807201472158
O            6.23545541054668       -2.96919491258344       -4.38577603167867
C            5.36972840245945       -4.03366377299933       -4.69910762286280
C            4.24751259802094       -1.77257085772296       -3.51926037791217
C            3.72128708650501       -0.65074223447723       -2.92931167497624
H            0.89209577056191       -0.57650648130314        0.34785533755142
H            0.95459067518042        0.16247990343538       -1.25268334228101
H            0.67004181030956        1.16128691956905        0.15924320378074
H            3.28521557972444       -0.35361740587031       -0.39602192174674
H            2.99936902250568        0.67015934320186        0.98359241150117
H            0.64612485992331        4.50317770118014       -0.76621732192391
H           -0.82269881277636        5.28445338734693        1.04986744442482
H           -1.00393631037096        4.93589066657738        5.55750399035311
H            0.72352362501988        4.90484969806869        5.15470394865558
H           -0.26864494136485        3.41786293044295        5.00689036623415
H            1.66823008321729        3.32523783766823        3.89418046708473
H            3.13613688685250        2.57584710688318        2.09616488086036
H            3.51569297251634        5.63211635491672        0.45938253476455
H            3.29968019099541        8.06052464048767        0.28841013978507
H            3.00388830663004       10.08686740544050       -1.10752325923089
H            2.70561050564105       11.10726077321247       -3.31054942118840
H            2.60549864047800        9.70014467472675       -5.33168799074016
H            2.80357498907454        7.26828387018247       -5.15417038553222
H            3.08964514334759        5.25091441063735       -3.75923645883333
H            5.85101488043701        5.05225493681998       -2.61692288813131
H            7.15589431925160        5.75541110411337       -4.56049037798852
H            7.83780789221942        5.40454442927987       -6.91701216474839
H            7.70303349529909        4.09903866319134       -8.98148428026935
H            6.26254633061540        2.10274281888949       -9.10095892505884
H            4.95033766256094        1.40882208117975       -7.15660461219668
H            4.25371291928601        1.77580319138212       -4.81635150510917
H            6.53945695054027        1.16366111005446       -2.58778515811550
H            7.48147828644597       -0.85065184166451       -3.64623034123670
H            5.95596354224293       -4.83785583942996       -5.14514206499247
H            4.61940703372632       -3.70368813873599       -5.41858118400699
H            4.89369884541082       -4.40591123899291       -3.79100573488044
H            3.59519568424481       -2.58482413091744       -3.78322835766165
H            2.66233615706427       -0.58025693960425       -2.75298612215973
