11
 energy: -1.880006434698 gnorm: 0.000178696979 xtb: 6.5.0 (97a52f5)
C            1.01037057757199       -0.07557000645988       -0.07178647630249
N            2.46738359830469       -0.07575709701015       -0.07169438680021
C            3.19577007588943        1.05738132347170       -0.62695660692673
C            3.15095277165306       -1.13893750169658        0.44929236575388
N            3.73127140049088       -2.04142910952922        0.89153335735449
H            0.61774384092142        0.83516495506865       -0.51807143236803
H            0.64523700282347       -0.15139454970521        0.95033181920881
H            0.64523750657631       -0.92979609312083       -0.63815495038774
H            2.51376284802180        1.81809119603199       -0.99972121315448
H            3.82674045434014        0.71964904559020       -1.44647619705092
H            3.82673992340682        1.49808783735933        0.14210372067341
