21
 energy: -3.267787947324 gnorm: 0.000866287341 xtb: 6.5.0 (97a52f5)
C            0.98710933030486        0.01208310971876       -0.00962157375570
N            2.44494505982437        0.10247204587206       -0.04903225131134
C            2.97300655156723        1.34901234246656       -0.59256509267673
C            3.22672957442774       -0.97966563793417        0.42282041694574
N            2.61498528511900       -2.01631927529351        0.87483521069715
N            4.64502669579394       -1.02155944703533        0.44109552998803
C            5.61669070462122       -0.01669870593587        0.00292519794607
C            5.27703446650675       -2.22530568279926        0.96597246239354
H            0.52077494577685        0.91327533875763       -0.40257226922408
H            0.64845038091756       -0.11894248695825        1.01662328440959
H            0.64845248352407       -0.82906306476396       -0.61196777581684
H            2.16708538067736        2.01931866597885       -0.88483878624478
H            3.56454852715248        1.14903905443796       -1.48408159710796
H            3.56455190108765        1.86618984231631        0.16063772180255
H            1.63187810473793       -2.04552491027060        0.88756483401747
H            5.16318778548718        0.88249950293263       -0.38915710734349
H            6.25000627605110       -0.43662825067262       -0.77668805837744
H            6.25002275663846        0.26880993605826        0.84113839643041
H            4.52015650112291       -2.94209247932684        1.27851972865931
H            5.89703518114137       -1.98050730827657        1.82662507271261
H            5.89703210751997       -2.68937258927206        0.20092665585588
