42
 energy: -8.020143293020 gnorm: 0.000552002319 xtb: 6.5.0 (97a52f5)
C            1.11060287722184        0.24638095692944        0.24991059300039
N            2.53820335526591        0.11892703586540        0.03727406978426
C            3.05940853379221       -1.14278641382840       -0.48507084754404
C            3.37660985317126        1.12094392751115        0.52809841110126
O            2.90762623233898        2.06982812668345        1.14004282860626
C            4.84189254407727        1.02517583550418        0.32607903466476
C            5.69628062071183        1.19626366787881        1.40962785207371
C            7.05767132332703        1.13512881333902        1.24350518895854
C            7.61227909981598        0.91013049770641       -0.01787629954372
C            9.04302549766997        0.84968408474491       -0.21341710931679
N            9.59403711677357        0.66997626972148       -1.38054615555579
C           10.97282898204572        0.65615035835435       -1.30435796821278
C           11.84904268142435        0.48661608774631       -2.38720591774111
C           13.19993586188584        0.49190925345486       -2.17301462043208
C           13.74614304554497        0.66117233557305       -0.88238022735739
N           15.14051807614279        0.65948354410964       -0.68345660734250
C           16.07440965574407        0.65357522638250       -1.80794303336848
C           15.72135901484147        0.68256391657410        0.65792382276435
C           12.87380003167345        0.82817880774249        0.18976463996015
C           11.50782507250914        0.82667474359477       -0.02054172051624
S           10.20652529181011        1.01528681789477        1.11261210145697
C            6.75063631857888        0.75768367196774       -1.10464737680596
C            5.38936478452072        0.81829853183859       -0.93708479227717
H            0.56276385815621       -0.09610019604017       -0.62601589771873
H            0.86735149540191        1.29188303979530        0.43412017670307
H            0.80986999493885       -0.33918251501390        1.11649329834894
H            2.35061814963362       -1.94761346484968       -0.30064859791642
H            3.99856240056512       -1.39693846812085        0.00232551022268
H            3.22365552451089       -1.06587637645854       -1.55771500478648
H            5.26874461088271        1.38782855801321        2.37891733909608
H            7.71447355732689        1.26711329149356        2.08505990708451
H           11.43933294359264        0.35374203731279       -3.37249855623896
H           13.86548245478033        0.35401468975475       -3.00595477770033
H           15.82183519689461        1.44827986697034       -2.50718787097670
H           16.03139047244817       -0.30350021229358       -2.32401687469027
H           17.09543303647449        0.81596960426963       -1.46917955491006
H           15.25978640826598       -0.08307511511944        1.27837537834165
H           15.56301815145245        1.65695558474542        1.11579344968118
H           16.79093057832991        0.48644351016074        0.62365994532618
H           13.24875522230342        0.97072321786385        1.18553588257934
H            7.17565076353744        0.59909733202617       -2.08044515879404
H            4.73259930961731        0.72971951820178       -1.78471446000609
