11
 energy: -1.620745881578 gnorm: 0.000375047058 xtb: 6.5.0 (97a52f5)
C            0.73975987000004       -1.01391007647676       -0.25857689985757
C           -0.73493988488387       -1.00435244429873        0.17813217271925
O           -1.16952596523460        0.33953522046022        0.00736168187328
C            0.01732482711780        1.13615607495393       -0.08298021783369
O            1.19080084298222        0.31963353400650       -0.06815249267355
H            0.85951830751717       -1.26299685578092       -1.31926998772655
H            1.36409377941555       -1.68771317387579        0.34073083861914
H           -0.85732540554651       -1.26506166160321        1.23562105381669
H           -1.36983129644550       -1.66173616266561       -0.42816424591213
H            0.05030027212145        1.82290380807621        0.77081083318220
H           -0.00722534704374        1.70944173720416       -1.01687273620705
