70
 energy: -13.433863328132 gnorm: 0.000917516717 xtb: 6.5.0 (97a52f5)
C            2.01737309661050       -0.81996550158126        1.54703959805993
N            2.25629471173914       -0.18233973685501        0.25163684691874
C            1.63416914113201       -0.81502571586334       -0.91245794497671
C            3.03421292267439        0.96481176795492        0.13349622597240
C            3.20884843912263        1.60298370578587       -1.10537387577316
C            3.97436695261698        2.73320660662090       -1.21852298223680
C            4.61461548077268        3.29072001077022       -0.10476014183878
C            5.44003198449703        4.50441746774477       -0.22598105698973
C            5.14845558688539        5.48838822577555       -1.17546443646801
C            5.91161107583960        6.62599635072454       -1.27805503674593
C            7.00666061838085        6.83362690215823       -0.43829938715153
C            7.83668448426758        8.04983272089682       -0.52348553318033
C            7.35867638791354        9.23129267912866       -1.07516597141641
C            8.15223380156412       10.38951001606794       -1.13654323384769
N            7.62426682437553       11.56500715109269       -1.69768433223377
C            6.17125261782859       11.84060052623029       -1.74002227604342
C            5.64548778488861       11.76316445973160       -3.17492893513403
C            6.41518486726776       12.74412384987673       -4.07456609238880
C            7.93116433309822       12.49583665991727       -3.98684876741399
C            8.41580575541973       12.50305069790206       -2.53158384923284
C            9.47776694014385       10.34533739777312       -0.60763399622986
C           10.29315348375839       11.47093554561152       -0.55462126410785
N           10.99395514471036       12.39943993211362       -0.50986135984490
C            9.95724029454147        9.14496857376883       -0.06174838280055
C            9.11812912959459        8.08728496599513       -0.04512020628903
C           13.16176058871768        9.21031658846856        3.90762152420778
C           13.64893968121538        8.39433973682259        2.76282650272133
C           14.96706776729042        8.72028306139356        2.11603245959318
C           14.93837475518931        9.99763694968822        1.60187031679453
C           13.73083276912733       10.62386196720966        1.81096080436759
C           12.78814267064982        9.69218453163526        2.53600882284999
C           11.36122723222305        9.56799518962021        1.98104605098039
C           11.32900747310903        9.07141690088918        0.54007212493049
C            7.30707026974437        5.84677060496927        0.49996431002276
C            6.54196188674547        4.71216733221354        0.60829201132047
C            4.44293795417151        2.65486789134209        1.13120135347928
C            3.67477952490447        1.52734603728314        1.24952873904453
H            1.32421812320958       -1.65337141707768        1.45407237501614
H            1.58857092417898       -0.10122345338390        2.24290899528493
H            2.95285348674538       -1.19773063343316        1.95547378707979
H            1.13577219982825       -1.74228521475477       -0.63756394303977
H            2.39104513062323       -1.04842658144612       -1.65905657224261
H            0.89514887575164       -0.14666841347247       -1.35043734025372
H            2.73059737879324        1.19635170002568       -1.97837929424799
H            4.10849695305979        3.19196849508713       -2.18256879294550
H            4.29740948577250        5.35776906980942       -1.82067062686304
H            5.67327483353632        7.35921969134009       -2.02810417745494
H            6.36482185903396        9.25744678364962       -1.47704904593231
H            6.01374151743596       12.84488920952729       -1.33409407054313
H            5.64118243010818       11.16193017065630       -1.06458945836786
H            4.56461364838409       11.95693604693495       -3.20893633940958
H            5.77863923676938       10.74249682620079       -3.55297356230678
H            6.19623406868523       13.77284113423493       -3.76304657112483
H            6.06805545190832       12.67215522717441       -5.11474925606892
H            8.48177489162271       13.23877994542453       -4.58024050259894
H            8.16636748315916       11.52435078531918       -4.43815744934309
H            8.33179503667048       13.50259362188170       -2.09462200257936
H            9.47358462103447       12.23120241076361       -2.47998120243087
H           13.17970079487678        7.43374822225731        2.51298902787735
H           15.81639498110480        8.06029646842281        2.08690860888276
H           15.77046459898390       10.45907183961913        1.09803081063823
H           13.47233332753573       11.61365633607579        1.47900333673022
H           10.87594947367178       10.54718660571685        2.04564387224971
H           10.77455645584464        8.90207773882050        2.62158828231314
H           11.69950668120985        8.04238505047634        0.48480873951901
H           12.01806338734772        9.66421436179653       -0.07149524903559
H            8.15374000210260        5.99076813340748        1.14859539749948
H            6.80402765675004        3.95894862737248        1.33046805380057
H            4.90692010178523        3.07736883590856        2.00531205594290
H            3.56053046971323        1.06167032484633        2.21199348499355
