67
 energy: -13.001751645509 gnorm: 0.000923319383 xtb: 6.5.0 (97a52f5)
C            2.39623084542077       -1.16497109116209        0.86094937368115
N            3.53712005588621       -0.60866233963100        0.13497731425141
C            4.01434965027629        0.70633125874939        0.55980492997272
C            4.13283964815371       -1.29723484986151       -0.93733112897486
C            5.14607263263814       -0.70846462479636       -1.70160698863829
C            5.72214835752631       -1.37580013989096       -2.75393656954165
C            5.31623801412870       -2.66944302634958       -3.09412214355861
C            5.90753398802325       -3.39684174288880       -4.20577541581451
C            6.82143169096484       -2.92145983170661       -5.10830348288749
C            7.21183805358988       -3.86488969312208       -6.08490907588215
C            6.61999711420394       -5.09186144195934       -5.94656269823235
C            6.81076393711223       -6.26497996816060       -6.79918130728120
C            5.69374853961801       -7.03901922982535       -7.07717192036285
C            5.70594148458843       -8.07757457898814       -8.00037926326218
N            4.52370173537846       -8.82237502303936       -8.24038534538182
C            4.04865657183745       -9.15261789624131       -9.60460608997793
C            2.80247868660998       -8.33561429981802       -9.96420277023606
C            1.70685870843366       -8.49593031532146       -8.89619034292146
C            2.25015585578413       -8.16523003151813       -7.49600650347083
C            3.49548994537349       -9.00367304171746       -7.19416721516754
C            6.91079098382977       -8.34115479143924       -8.69237257153670
C            6.97727627231818       -9.37517558509035       -9.63103155198366
N            7.03618725515113      -10.22158337012677      -10.42570806038372
C            8.05871790573596       -7.60112075140571       -8.40564951603776
C            8.04689462635771       -6.60323368630820       -7.41489847210415
C            9.33141004010508       -5.98414112779198       -7.02723006294356
C            9.56703751798735       -5.50796048768298       -5.73627548883709
C           10.77570350234136       -4.94766186580770       -5.39269471709997
C           11.79002796383897       -4.87090492506065       -6.32407175858185
C           11.59783925446147       -5.37988906989252       -7.59226934762313
C           10.38805838399723       -5.94911194870164       -7.95136628066973
C           10.20387134617864       -6.60266827393611       -9.28938000383558
C            9.33121302734293       -7.86595172602066       -9.16702121388538
S            5.52765889473128       -5.05678486389150       -4.58645427993360
C            4.30952327031770       -3.25949440737130       -2.32665017765854
C            3.72996586311830       -2.59289443377715       -1.27686201636176
H            1.99040427134661       -0.44353910946926        1.56740731341555
H            2.70150138375452       -2.05174547864584        1.41382479017053
H            1.60494560125752       -1.43416129234669        0.16333424935902
H            3.50504228929565        1.03644293046061        1.46323916995050
H            3.83297844137852        1.43999915498398       -0.22296875911206
H            5.08098043771735        0.66583994397018        0.77087596102008
H            5.47373398681637        0.28716787075625       -1.46260044810919
H            6.50027079512124       -0.90052607296462       -3.32352242564015
H            7.20715147039895       -1.91455360309070       -5.08554592724217
H            7.91261797003332       -3.64317266753270       -6.87508184381427
H            4.76826880984251       -6.77959643456791       -6.59893018998429
H            3.83863873465439      -10.22569615554277       -9.64228164628841
H            4.85334924087000       -8.96949208786323      -10.32253383689119
H            2.42582128804749       -8.61955002097323      -10.95649130279877
H            3.07902871815405       -7.27734083754200      -10.04408929451280
H            1.33569408057713       -9.52809892674694       -8.90816374612119
H            0.83654118879354       -7.86841982910516       -9.13395978664631
H            1.48014422354289       -8.31902294573766       -6.72748204638768
H            2.50866131628182       -7.10068532974359       -7.44872223465857
H            3.23882135136861      -10.06709607109816       -7.16042801324021
H            3.92544793123359       -8.76717029707368       -6.21536686339689
H            8.78939182568660       -5.59185161366490       -4.99773808881896
H           10.93091066777600       -4.57198617781735       -4.39442811926944
H           12.73673207132438       -4.43092270360898       -6.05629667316627
H           12.39826055138846       -5.35021775386206       -8.31173744492349
H           11.18182695299252       -6.84463860202860       -9.72352779823736
H            9.73527805439627       -5.88759567009050       -9.97539360197209
H            9.88914763124252       -8.65877203243054       -8.65575718548132
H            9.08886793330269       -8.26308948491056      -10.16057689732859
H            3.98997367533264       -4.25606885186940       -2.57556097736035
H            2.95963548275630       -3.07434662824935       -0.70198416937070
