46
 energy: -9.700024502600 gnorm: 0.000910209795 xtb: 6.5.0 (97a52f5)
C            1.38321122546651        0.67798219829217       -0.74204241467472
N            2.39499583608817        0.13769437184334        0.16449823526042
C            2.61260813038683        0.86290145321101        1.41493423673841
C            3.13212630224590       -1.01258695860670       -0.15665009954320
C            4.03026306509023       -1.57478230606340        0.75697331578925
C            4.75019691252326       -2.69907805896806        0.44270095999009
C            4.61358001201821       -3.32082534849278       -0.80123632677452
C            5.38840139280424       -4.52949199176599       -1.13753038794326
C            5.72872068121678       -5.46448366296557       -0.16030199239696
C            6.44866062714406       -6.58734292530847       -0.47898465590222
C            6.87705565407964       -6.84893314828405       -1.78590025206093
C            7.64550816363433       -8.07975446788010       -2.04769926030117
C            7.83451937013640       -8.86662520847229       -0.91381090764250
N            7.97575865686066       -9.50117438853941        0.05112751897704
C            8.15641397736884       -8.47155458989870       -3.26746012468047
C            7.97196755351362       -7.68149091168908       -4.39834400468505
N            7.83187148484172       -7.03994519317097       -5.35932449649006
C            8.92630077628661       -9.70547822461663       -3.52876408266056
C            9.40343402681591       -9.93822739985206       -4.82354672748027
C           10.12528590916706      -11.06958211496346       -5.13841407806029
C           10.39320655850174      -12.00756121348421       -4.16790437005552
Br          11.37986689463792      -13.55833705323905       -4.59404276564162
C            9.93805021397139      -11.80994064931051       -2.88418841381191
C            9.21675073409741      -10.67842285959289       -2.56738138484930
C            6.53064156647651       -5.90352895115813       -2.75702638783067
C            5.80851261244432       -4.77994745587734       -2.44396895758242
C            3.71756596621226       -2.75959072537285       -1.71485907203508
C            2.99491581588616       -1.63667259218861       -1.40145299037582
H            0.82700591359075        1.48576168756391       -0.27135732735769
H            0.67497523054453       -0.10058528102060       -1.01818353562599
H            1.85754901057380        1.06529585179421       -1.64160448905968
H            2.06153462969439        1.80055925277927        1.42525601307640
H            3.66902077955106        1.09366048777341        1.53434625324422
H            2.28101877599364        0.26001696471804        2.25764609347457
H            4.15263896526492       -1.11956359775145        1.72332986387915
H            5.44838510894222       -3.10235844547212        1.15512788925887
H            5.40097092658654       -5.30905623191498        0.85258413984091
H            6.69196820479140       -7.29382255071077        0.29530840375349
H            9.19917775004729       -9.21272620413518       -5.59112360009732
H           10.48614566638504      -11.23278672595312       -6.14082783613338
H           10.15467794113732      -12.55187542934517       -2.13260419700408
H            8.88208967509835      -10.56030544896876       -1.55598135056228
H            6.83221386266165       -6.04160441526483       -3.77632359528741
H            5.57794704911963       -4.06377809359468       -3.21330221009883
H            3.58134304317637       -3.23240419920966       -2.67174874179549
H            2.31460734692002       -1.22490724485998       -2.12488188678369
