31
 energy: -6.202726100646 gnorm: 0.000503465857 xtb: 6.5.0 (97a52f5)
C            1.31521747552293       -0.76634003140360       -0.23121972523102
N            2.53394263255602       -0.02179556426166        0.08049735595704
C            2.87065668212404        1.08649117026204       -0.81151224207859
C            3.34254112874362       -0.35791708651227        1.18072451995773
C            4.41216345982805        0.45496368169880        1.56949660253531
C            5.19948975263118        0.12828996789968        2.64499476892315
C            4.96298318938523       -1.03011803132591        3.39312982021549
C            5.77979424946220       -1.37853750109212        4.56209746660104
C            6.56748564465699       -0.44656186751080        5.20285997403905
C            7.35723053092390       -0.75663276985147        6.32825725705379
C            7.38513574654050       -2.00887776495137        6.85590382456712
C            6.59657945832687       -3.03085348006092        6.26328801133442
N            6.49865098916794       -4.28762757607341        6.64691373431031
S            5.45545325898964       -5.04822114921004        5.63238864928546
N            5.10169393898740       -3.76354561157127        4.67139873657304
C            5.77756726336259       -2.72128094165488        5.10183931180947
C            3.90461215497415       -1.84703612683573        2.98853729572648
C            3.11043537821473       -1.52153954211535        1.91986670904468
H            0.71174137599761       -0.23587535017689       -0.96500390277554
H            0.71411927011292       -0.89366480827026        0.66701496928319
H            1.56897246326739       -1.74521239857898       -0.63341716140738
H            2.28113962010220        1.04369856301676       -1.72512325269687
H            3.92146198931567        1.03785455942269       -1.09028310325761
H            2.67568270524173        2.03577407464026       -0.31637051311003
H            4.61288044687509        1.35714094982464        1.01986846972117
H            6.02603729787685        0.76585299138800        2.90288059156147
H            6.56603024585648        0.56856501033624        4.84941260977642
H            7.94971003884685        0.02136408051712        6.78091075346660
H            7.98681310468753       -2.24585122005062        7.71479581819998
H            3.72140291051902       -2.75677765456915        3.52841307103216
H            2.30865559690239       -2.17835857292878        1.63355957958426
