67
 energy: -13.424903234103 gnorm: 0.000603450163 xtb: 6.5.0 (97a52f5)
C            0.65432952988940        0.40106841250783       -0.62156498533510
N            2.11441248136900        0.46829377997956       -0.59166189789041
C            2.70735038489102        1.41054773173253        0.35654697278976
C            2.90866207409436       -0.40718641432069       -1.34809249443582
C            4.30329439808496       -0.28364309618448       -1.36385887415145
C            5.08223932193969       -1.15428605579976       -2.08065591905737
C            4.50916299066228       -2.20056722285283       -2.81159375159850
C            5.35130405392068       -3.16347753154052       -3.55696421743485
C            6.39758804105578       -3.82012862447482       -2.95823515189396
C            6.71732983486615       -3.87116991809315       -1.54985330380159
C            8.01112366401941       -4.22682079055172       -1.14500624459080
C            8.34882601818468       -4.28296768262488        0.18251982501192
C            7.41428882069519       -3.99654846940714        1.18687520147042
C            7.83855054559149       -4.05385750962929        2.56983546778744
C            7.11797284538462       -3.77885997775290        3.69097370346511
C            5.77480435233795       -3.40348887388932        3.62946521897700
N            4.65395307696815       -3.09680478587488        3.57962254983612
C            7.71056966377019       -3.88299365786572        5.03636814518266
C            6.88134604634227       -3.89114159625992        6.16022300968330
C            7.40032565805734       -3.99132577316096        7.43089336462197
C            8.76505123199314       -4.07955835511778        7.61415152065288
C            9.60639045871000       -4.06225330434306        6.52021698223188
C            9.08943664004085       -3.96379375030543        5.24724095361822
C            6.11427092034618       -3.67128601501121        0.78051372026384
C            5.77449720123769       -3.61866253822994       -0.54449942937894
C            5.08998485440402       -3.35586668173784       -4.99265345361687
C            5.48300506647486       -4.51785984758366       -5.66566195230677
C            5.23353694802832       -4.68112703117060       -7.00442605819381
C            4.57563796559881       -3.69202153000304       -7.74517023164820
N            4.32244898141685       -3.85866204179172       -9.11514560095041
C            4.66765983714444       -5.09627911965363       -9.81370025314005
C            3.70874166846401       -2.79931951782546       -9.91520390661586
C            4.17585341580642       -2.53273234870211       -7.07018388781389
C            4.42551310783374       -2.37174167085897       -5.73175393392694
C            3.11534157586188       -2.31227174058382       -2.81522078723966
C            2.33548504842114       -1.43963393454206       -2.10110963699335
H            0.21359857828385        1.25407812203313       -0.10939324872877
H            0.31396267483184       -0.50964562297803       -0.13212568884801
H            0.29862692465890        0.40864778563781       -1.65014888055751
H            1.94438178868081        1.86907038829438        0.98240533579166
H            3.23317610196271        2.19892992728886       -0.17881648900392
H            3.40821259852955        0.89153407059216        1.00807501152787
H            4.76840306502565        0.50899328495246       -0.80565603486903
H            6.15368093238373       -1.05011700542896       -2.07947909379675
H            7.07435435605623       -4.35205765102669       -3.60360474831719
H            8.74969371712568       -4.44401359533750       -1.89762249684386
H            9.35327040868967       -4.54609041158165        0.46711857199169
H            8.85652516325326       -4.36767558780257        2.70958035765063
H            5.81701700487357       -3.81577917877916        6.01961178605453
H            6.74069567595089       -3.99934676634403        8.28322776774504
H            9.17290054179173       -4.15746255565997        8.60874037402101
H           10.67302291095560       -4.12244330809591        6.66347881594895
H            9.76316958111036       -3.92525363226021        4.41036573176228
H            5.36208062805369       -3.45725711846970        1.51561299166904
H            4.76096856799141       -3.39138856276952       -0.82161389695208
H            5.96622942257915       -5.30702105293113       -5.11685097478533
H            5.54949625203094       -5.58347367412644       -7.49663048828333
H            5.74822403457436       -5.22597999660299       -9.83131246680267
H            4.30780958846821       -5.08190853902475      -10.84051677518421
H            4.21425297072460       -5.94840667429389       -9.31067779257922
H            4.26540592413046       -1.87126441909308       -9.79689560202162
H            2.67951052420532       -2.64117909304226       -9.59756715537499
H            3.70590314880443       -3.05654883897541      -10.97271681075382
H            3.65885052744217       -1.75997804456711       -7.61035544209455
H            4.11425704508919       -1.47021659533546       -5.23314476312844
H            2.66185753470480       -3.11043924523590       -3.37751501579571
H            1.26699308310195       -1.55960892554264       -2.10325354302527
