54
 energy: -10.418514972718 gnorm: 0.000674775266 xtb: 6.5.0 (97a52f5)
C            0.87291000122193       -0.55465350165104       -0.04185046843741
N            2.32819155739797       -0.59284225497481       -0.17984304137795
C            2.88011475865821       -0.17858172042375       -1.46927282497910
C            3.15903532668941       -0.96286181405304        0.88924049673025
C            4.54826754485861       -1.03819376581493        0.73252437456679
C            5.36103510022138       -1.38521547692994        1.78054734916485
C            4.82870953955659       -1.66641321759597        3.04307024308178
C            5.70097585993712       -2.03576310899155        4.17946563642047
C            6.80869513365991       -1.30057798529873        4.51661998265988
C            7.19009468061221        0.00506284738591        4.02337125803834
C            8.52311327468970        0.42331950438079        4.13687068511084
C            8.91877676800085        1.66152801517693        3.69651357782501
C            7.99543783588503        2.54112861946460        3.13408485802571
C            8.38887371382186        3.85711815009890        2.65428074258947
O            7.64654873555386        4.66212035678745        2.15674355079721
C            6.66641522978749        2.14558678445098        3.03793343908501
C            6.26852630610165        0.90870890191845        3.47759300404982
C            5.39302570362984       -3.26968815121427        4.92263192417909
C            5.76116955869878       -3.43101970420593        6.26244116493097
C            5.45933032598822       -4.58089118845281        6.94640323924043
C            4.77303606371299       -5.63268189939923        6.32817911084663
N            4.46301583034343       -6.80786006471535        7.03035579711871
C            4.88116445409278       -7.00456376394659        8.41795955986561
C            3.69501276105626       -7.88742546350531        6.41119904825854
C            4.40318618432572       -5.46967039988440        4.98815612353628
C            4.70359457981971       -4.31862264598951        4.30647300794676
C            3.44044337060272       -1.60747310881864        3.19726844977451
C            2.62677665466007       -1.26289492800756        2.14902897082773
H            0.39364140363786       -0.34043846926072       -0.99486035884644
H            0.58707230583564        0.21914909125185        0.66815652773608
H            0.50513181535664       -1.51672212884643        0.30987133049999
H            2.09662327908469        0.17020673379024       -2.13882722750867
H            3.38777207198523       -1.01594559777497       -1.94428851265654
H            3.58890469476483        0.63516780566445       -1.32745763458592
H            4.98316797967192       -0.82027688491466       -0.22634633566838
H            6.42741023774218       -1.43930859336980        1.64419723649748
H            7.48414860798664       -1.73880760888536        5.23061631374983
H            9.24454885429017       -0.24897140723419        4.56871686641285
H            9.94813226022114        1.96475739774178        3.78141074725176
H            9.42681830837936        4.14468225391499        2.74369635402513
H            5.95699745391980        2.83498432037677        2.61253331941636
H            5.23135264688382        0.63232325416014        3.41883483406688
H            6.26360674765823       -2.62611597678589        6.76978752008425
H            5.74645199765727       -4.67505803739221        7.97833210776770
H            5.96200897897444       -6.90559286044162        8.49898848369753
H            4.60490828281947       -7.99426780793000        8.77564235776343
H            4.40609922082866       -6.26488166117655        9.05967278683216
H            2.74290635717009       -7.50707763542147        6.04581931856978
H            3.48953047430685       -8.68294497912486        7.12446648214382
H            4.25352459611239       -8.31152364152822        5.57876691835664
H            3.87853776456421       -6.26270461596623        4.48618493200917
H            4.41619636300192       -4.21467468403760        3.27451815009760
H            3.01729852244816       -1.82858921221878        4.16209309887483
H            1.56304192111703       -1.21391807038147        2.29781512354026
