49
 energy: -9.885707927811 gnorm: 0.000610312667 xtb: 6.5.0 (97a52f5)
C            1.30564909567580       -0.53539624768328       -0.08918742651893
N            2.72009166191551       -0.39584982415515       -0.43372843909812
C            3.64528938142136       -1.35813859547090        0.16373762618561
C            3.16813919573059        0.60826819819560       -1.30601048512580
C            4.52808754504851        0.74903228645076       -1.60799672467213
C            4.96540022599733        1.73821142258719       -2.44877266031587
C            4.07170635096808        2.64632923819179       -3.01429429678298
C            4.57862503978470        3.66062703490598       -3.94529796954264
C            4.07822304394409        4.95923595967243       -4.05289687465375
C            3.16796350583885        5.64323274378552       -3.14061067875036
C            2.53272598551282        6.81681772391414       -3.56767334188180
C            1.68669380045293        7.51137857704676       -2.73213438751216
C            1.47237030540172        7.06864568213241       -1.44278754749065
C            2.12149710222042        5.93908487424213       -0.98626280871992
C            2.96555584496664        5.24041563179066       -1.81751227354265
C            4.53916728134713        5.70497640192796       -5.15896031276994
S            4.01619362608630        7.22722160933394       -5.67286953298706
C            5.02819372272893        7.45174761893807       -7.01500383113144
C            5.20013164696959        8.46699518284941       -7.94177717536372
C            6.14893184116103        8.30315495291872       -8.91637347766508
C            6.92775479508193        7.13821970988348       -8.97828235127847
C            6.76348100130188        6.12979441139612       -8.06759808274301
C            5.79823258109397        6.27439054722579       -7.05911399986050
N            5.48931582055845        5.36994207565489       -6.03215162722281
B            6.24579800782871        4.04647042075928       -5.83117811563646
F            6.23290103242581        3.37296492151386       -7.04725441298675
F            7.54589325104949        4.37036754943196       -5.45991792654165
O            5.58729996201273        3.24928165188267       -4.77277090522306
C            2.70908995831644        2.48668749811201       -2.74785289831246
C            2.26958756098792        1.49775516442666       -1.90794889822133
H            1.15646360085285       -1.32015429063153        0.64882524286931
H            0.72988429253094       -0.78778527186994       -0.97717544022055
H            0.92958707924744        0.39627850090489        0.32823191341422
H            3.11708346864435       -2.07946698181303        0.78315028412551
H            4.37041528456378       -0.83971047200906        0.78769073593383
H            4.17061213048017       -1.90326775095363       -0.61776075176811
H            5.23885889547411        0.06748679118914       -1.17668276272038
H            6.00944103767918        1.82940582105671       -2.69665470604863
H            2.75084067714517        7.20747285678662       -4.58591900056591
H            1.20420476999466        8.40898907256980       -3.08225409345629
H            0.81364565561549        7.61427348120218       -0.78744144238261
H            1.97380983098064        5.60890217543251        0.02888612763586
H            3.50330085184836        4.39061253203797       -1.43765298474120
H            4.59527143329872        9.35371294623421       -7.87502449758761
H            6.30131190652622        9.08080578639719       -9.64639776844613
H            7.66677300382999        7.03636840395274       -9.75559269261242
H            7.34749782514986        5.22664020452870       -8.10150977648285
H            2.00490719037546        3.14555889543879       -3.22581055269070
H            1.21689089193076        1.39513287768235       -1.71551599789094
