35
 energy: -6.587180428753 gnorm: 0.000719389665 xtb: 6.5.0 (97a52f5)
C            1.42021130167461        0.90312943025690       -0.26412605959300
N            2.48677618879079       -0.08348651231828       -0.10174810102433
C            2.70336523042514       -0.60224268445025        1.24812073444582
C            3.25960911599845       -0.51999060326075       -1.19135567911003
C            4.16002157245386       -1.58175029811785       -1.05787630478040
C            4.91254306731249       -2.00241400338453       -2.12314578822994
C            4.80889826950254       -1.38911906353589       -3.36866055679199
C            5.64333087583673       -1.89721797663653       -4.45611233450859
C            5.64624478264340       -1.36217234938264       -5.71008311671028
C            6.50951464068542       -1.87408991403662       -6.71428392120215
C            6.66337341948301       -1.28197649895373       -7.95776593569125
C            7.54278203753409       -1.83734124158045       -8.85684695838321
Cl           7.71244619576406       -1.05838423719389      -10.39743037972426
N            8.26578342899530       -2.93288989870770       -8.60319290506345
C            8.07672847408345       -3.46753989199941       -7.41683506923975
N            7.24827304125688       -2.98655117178097       -6.48525423722029
B            7.04155902251474       -3.79638866300069       -5.20552311036046
F            8.27336326579628       -4.30106094092752       -4.81234420025262
F            6.15811952915451       -4.82328632754321       -5.51322032585698
O            6.46056413847648       -2.95205046170953       -4.15197564877531
C            3.91055473686241       -0.33000363217279       -3.50874688046245
C            3.15433176635645        0.09229771260418       -2.44529346807100
H            0.80978383257630        0.96753263207157        0.63362270808940
H            0.77257214271709        0.61937960023443       -1.09070108404920
H            1.84663403865131        1.88376781884040       -0.46311158840472
H            2.17113152662548       -0.00477211555993        1.98468485496925
H            3.76245890180498       -0.57177465599624        1.49456630115868
H            2.34952172103196       -1.62880063461596        1.31348979107827
H            4.25250531251126       -2.08270810874307       -0.11118783685443
H            5.60085097812227       -2.82475987004001       -2.02062146974974
H            5.02620371806015       -0.51948126196238       -5.94676566240342
H            6.11282174763112       -0.39586954021878       -8.21919064851628
H            8.62897101262648       -4.36154823966493       -7.17429762833836
H            3.80724927433311        0.16085549566271       -4.45948023870163
H            2.47481169170809        0.91578810782330       -2.57212725167303
