38
 energy: -7.128906888208 gnorm: 0.000989459764 xtb: 6.5.0 (97a52f5)
C            1.53373875878883       -0.51578194776361       -0.07729640681642
N            2.80425465271235        0.15663599634377        0.19138974889825
C            3.48074361725863        0.76781627329227       -0.95201094231832
C            3.34720514653739        0.21559266520073        1.48584322658159
C            4.48271604912320        0.98845966672926        1.75678590033667
C            5.00994235258855        1.04643901585946        3.01920851093162
C            4.43009276775218        0.33403595097654        4.06536673581917
C            5.00516053645521        0.40817434726405        5.39661420484652
N            4.46087622298518       -0.28806195067716        6.35580474956617
C            5.06854535146976       -0.15756620856737        7.54965838685571
S            4.55830975542137       -1.04206933957302        8.98966815017938
C            5.80156200932937       -0.30270821769026        9.96593007757567
C            6.07083616773915       -0.50195643149327       11.31340276003890
F            5.34020570870113       -1.36094276096473       12.04865666122024
C            7.11119380953059        0.20190200396503       11.89218665957426
F            7.39538991040740        0.02431676269190       13.19259454902535
C            7.87138556000103        1.09876325545823       11.13413387329944
F            8.87286621322935        1.77505312025921       11.72183171220247
C            7.60612276478010        1.30021630177694        9.79373021969455
F            8.34106379166385        2.19102284304493        9.10608075419366
C            6.55590220916865        0.58108771491853        9.19773742190033
N            6.10366058311685        0.60807541783222        7.87177292907395
B            6.75353581219752        1.47220402447038        6.79840124613468
F            6.58705738672910        2.80154070861215        7.15029061656089
F            8.09084702825965        1.12279133694606        6.70283967308608
O            6.08809199088527        1.21309917952221        5.53055593926780
C            3.30047540423234       -0.43901519377995        3.80578705293899
C            2.76967419744050       -0.49612208465192        2.54457452143286
H            1.18444958953553       -0.29977786867785       -1.08400621338970
H            0.77503187483317       -0.17168842942342        0.62172237188137
H            1.65386261210797       -1.59180551105572        0.02344340392048
H            3.01520582903817        0.46569404748539       -1.88698297063587
H            4.52219245728504        0.45478903638198       -0.97958115362403
H            3.43295972232468        1.85189297434786       -0.87641157756682
H            4.94057660168585        1.55357456326669        0.96508557966702
H            5.88154429108326        1.64343506620134        3.23119492942124
H            2.85598099870241       -0.98923498281792        4.61719461361367
H            1.90278026489928       -1.10508134571071        2.36148208461324
