41
 energy: -7.733141580690 gnorm: 0.000560268075 xtb: 6.5.0 (97a52f5)
C            1.50203403411120        0.28141310457197        0.22305859010017
N            2.74504848071178       -0.40643340945842       -0.12330468709364
C            3.43793110920339       -1.09992315142720        0.96160607074280
C            3.25170833553569       -0.39647523123511       -1.43364842396892
C            4.36774420750076       -1.16678199316100       -1.78285768826918
C            4.85915105883472       -1.15599526447465       -3.06141211179168
C            4.26047846223608       -0.37507624649230       -4.04658440138633
C            4.79163714005398       -0.37295120557503       -5.39954890483342
N            4.21005563197128        0.38490654977651       -6.29097530161530
C            4.77648655556280        0.33845370607992       -7.51100321223231
S            4.25385147063453        1.30146111300162       -8.90154829346537
C            5.49096628860974        0.60889001362105       -9.93653631075765
C            5.78493345872910        0.84922178276478      -11.26725859444512
C            6.82067358188497        0.16584666971578      -11.86234050207382
C            7.14698343612189        0.44295218216799      -13.31744852941413
F            6.00749167481401        0.37491984329506      -14.03404495407521
F            7.67628286181632        1.67895858196552      -13.40800413557021
F            8.02994924824347       -0.47470532814912      -13.75827325233948
C            7.57234100873766       -0.75622941644166      -11.13456564691403
C            7.29476232568889       -1.00407355182056       -9.81518164385257
C            6.24391186935374       -0.31467564788436       -9.21091864193714
N            5.79910794269900       -0.41234958794019       -7.89109334769330
B            6.44896385772460       -1.39340363324346       -6.93097323057268
F            6.17608779577380       -2.67204903690526       -7.38719284980686
F            7.81271260032468       -1.15658792724079       -6.93249071614287
O            5.86993520942090       -1.17343575022617       -5.61342329502118
C            3.14977615051998        0.39513799974784       -3.70831270213837
C            2.65532734564020        0.38443113193332       -2.43123713523634
H            1.17521013528434        0.01392744154754        1.22493991941569
H            0.71413948504233        0.00086089480949       -0.47213605981073
H            1.64946932461659        1.35827270061186        0.18317500905810
H            3.00621101811245       -0.84304168324036        1.92588226099246
H            4.48701791860175       -0.81376643436852        0.97742557115630
H            3.36109729280151       -2.17596989645092        0.82386240293667
H            4.83868117437317       -1.78422012791837       -1.03943153293574
H            5.71547774301555       -1.75070274140282       -3.33263047856997
H            5.21137920247197        1.55963340015147      -11.83695580937936
H            8.37739464499895       -1.27022273917029      -11.63387007297458
H            7.86655759557054       -1.70595006789501       -9.23186203909529
H            2.69000832772123        0.99761646596232       -4.47262220471551
H            1.80256299493154        0.99225649039768       -2.18856311427661
