38
 energy: -7.246588689527 gnorm: 0.000598474652 xtb: 6.5.0 (97a52f5)
C            1.56896632205547        0.39822490681306        0.27578926955117
N            2.84138417179912       -0.22884233029741       -0.07882268069063
C            3.52286385757903       -0.97833192748946        0.97551817189708
C            3.37616909738783       -0.12798069225847       -1.37495322248931
C            4.51575561738057       -0.85271911394797       -1.74487940879720
C            5.03271641263926       -0.75610585279819       -3.01014644704508
C            4.43780996080040        0.06953776915115       -3.96095529935384
C            4.99568105260829        0.16296291795467       -5.29995726342264
N            4.42014865751116        0.96489629074875       -6.15522369603867
C            5.01002950209294        1.00033640678979       -7.36603370589895
S            4.48719261806153        2.02997379783371       -8.71027208938212
C            5.75624912888148        1.42162107801903       -9.76227487128772
C            6.05780223556089        1.73975600787708      -11.07226899403141
C            7.13004827587474        1.11625749716291      -11.71619864991684
F            7.45033300377646        1.42928473785896      -13.05757490922196
C            7.88932495209476        0.16309557187680      -10.99672874300518
C            7.59519015470161       -0.15417583630671       -9.69872153068254
C            6.52053401647763        0.47809563169597       -9.07478003676599
N            6.05667720508208        0.29609963107466       -7.76845416550609
B            6.71913274058725       -0.72070999356094       -6.85372887437903
F            6.51181422353997       -1.97829209464534       -7.39938340721757
F            8.07301566336318       -0.42995342395070       -6.79566661758014
O            6.09288410973520       -0.60804951417365       -5.54146117857404
C            3.30436120606362        0.79617881434761       -3.60062479320815
C            2.78408294076467        0.69936527102294       -2.33700372251237
H            1.22717965521251        0.06234620049830        1.25215525523805
H            0.80683504225720        0.13531863250903       -0.45471198049955
H            1.68136067040803        1.48000382847874        0.30244346088328
H            3.05839244124108       -0.80104529302341        1.94271935000563
H            4.56329305283241       -0.66764742985347        1.04138215142174
H            3.48005130213697       -2.04413937227509        0.76207228335327
H            4.98480603308244       -1.50242920912497       -1.02827607914576
H            5.90682817799077       -1.31621528321780       -3.29659295696911
H            5.46653527621468        2.46734965462778      -11.59664169734830
H            8.71502473788158       -0.31428396656334      -11.49454867875900
H            8.17020950364466       -0.87378094965773       -9.14212387847817
H            2.84780230485340        1.43449736997713       -4.33697553862782
H            1.91414467582357        1.27431026682631       -2.07562482551825
