43
 energy: -8.628615474744 gnorm: 0.000722442189 xtb: 6.5.0 (97a52f5)
C            1.66668515082698       -0.41396441663471       -1.31785076691905
N            2.48716585174012       -0.34295173676075       -0.10975415398431
C            2.37439082458366        0.87390025453168        0.69416270520295
C            3.34036959279059       -1.39533463839136        0.26364183601517
C            4.02615105072165       -1.37150950097735        1.48433624630725
C            4.85207779878062       -2.40181553511187        1.85014897725606
C            5.03101934728905       -3.50003976125841        1.01180974902851
C            5.89831698653780       -4.60483633982513        1.38991028418958
N            6.50733376817288       -4.55760709203058        2.54027326149030
C            7.31471414442011       -5.61462767695102        2.78723801377999
S            8.39378005234352       -5.70747373943918        4.16778134646740
C            8.97452408576192       -7.26193446832609        3.69279449459880
C            8.37423123630670       -7.69056336044986        2.55001177366546
C            8.67701654420729       -8.98376463284196        1.91047298374676
C            7.69755684753926       -9.70986496187919        1.23976634926034
C            7.97825928546344      -10.92892192465369        0.67235060312235
C            9.25424679882025      -11.47099899832378        0.75921226707120
C            9.54447527846428      -12.71872618186691        0.19081574354027
N            9.78821446630215      -13.75508492105491       -0.27453136491629
C           10.23955125557895      -10.74980730421813        1.42218971464759
C            9.95659067406734       -9.52922822790734        1.98744851770746
N            7.45668850382682       -6.73398216499641        2.08566497605151
B            6.56372415188977       -6.91097834552000        0.85743118201228
F            7.32780808257016       -7.42863174002606       -0.17465276419000
F            5.53850730352310       -7.77506478787479        1.20912079631454
O            6.01206513471323       -5.61412408083822        0.48522943712892
C            4.35464473044995       -3.53125100081142       -0.20456644498533
C            3.52701701205214       -2.50311790876719       -0.57211267622791
H            0.96433144540777        0.41511030440228       -1.36260489058829
H            1.09483906839894       -1.33937309460554       -1.32612051126953
H            2.30082127172964       -0.37653685485202       -2.20091428792826
H            1.79584390335819        1.63391931246053        0.17399188720922
H            3.36290728887177        1.28238403703458        0.89299604571072
H            1.88164151184879        0.65158200121624        1.63841400477457
H            3.89347613033352       -0.53704430347092        2.14894084714843
H            5.37406999549996       -2.38276878474258        2.79112407385159
H            9.70540146398019       -7.81573991806998        4.24784326454102
H            6.71510371441712       -9.28416911133697        1.14494769256116
H            7.21290326909948      -11.47559124696838        0.14764884907346
H           11.23209147059698      -11.16266522710472        1.48502231349233
H           10.73265999793711       -8.97601042014625        2.48706618403020
H            4.49749690248214       -4.38518644393881       -0.84529596637575
H            3.01833660628827       -2.54419505667545       -1.51829259360565
