50
 energy: -9.364312042765 gnorm: 0.000623203213 xtb: 6.5.0 (97a52f5)
C            1.91516145932998       -0.07147778222443       -1.38463439124699
N            2.66686926308966       -0.12503790488952       -0.13172830378849
C            2.62544131287056        1.06965748119278        0.71076087133535
C            3.40188771331516       -1.26550539892079        0.23959207404286
C            3.98015333081944       -1.37061771444107        1.51063702188044
C            4.69826422687542       -2.48157586680408        1.86987307564753
C            4.87247328846710       -3.53535119720687        0.97440700292913
C            5.64007781966811       -4.71635462244984        1.33753380868888
N            6.14248205732857       -4.79380989050215        2.53690724282970
C            6.81528081904898       -5.94206599892392        2.78526742565428
S            7.38625079301799       -6.40749017707307        4.37924059339311
C            8.06027842545715       -7.88161045223798        3.77751594049691
C            7.86934282199566       -8.00520976820509        2.43679219618609
C            8.36294592478430       -9.14648168928033        1.64564159430290
C            8.41183745841423      -10.42725953061988        2.19240700501883
C            8.89776701763147      -11.48783565903461        1.46777711971614
C            9.36212838186345      -11.31682273075156        0.16125862859315
N            9.85913114367289      -12.40533820409048       -0.58526736101747
C            9.75073634380338      -13.77918487713859       -0.09760080657696
C           10.44828422764149      -12.21720853222409       -1.91013507302491
C            9.31173622434629      -10.03221735360361       -0.38389713988137
C            8.82390976538933       -8.97658792183175        0.34358318468784
N            7.16518256223636       -6.89963075303143        1.93270211968970
B            6.80717810742486       -6.69043110619155        0.45989750240667
F            7.95001161730206       -6.24754316822525       -0.19162083554469
F            6.35932185002049       -7.89241718414796       -0.06663306708273
O            5.76275862050610       -5.67357681958651        0.37533659746569
C            4.30090840444321       -3.43846958181927       -0.29177262007177
C            3.57993397184541       -2.33008405321057       -0.65229659880802
H            1.24045675697680        0.78167407069434       -1.39711655064412
H            1.31669853341903       -0.97267363122210       -1.50105087021457
H            2.59921857404119        0.01494422597116       -2.22640937624527
H            2.20797240391292        1.91450327068256        0.16735046645412
H            3.63094007283046        1.33963628936240        1.02691943242386
H            2.01110374618866        0.88524025361770        1.58972726011647
H            3.84867929696268       -0.57153587685211        2.21778807898086
H            5.14119446315073       -2.55886354424332        2.84761955920070
H            8.58113778645222       -8.59015517090904        4.39029416663420
H            8.04984029493903      -10.58075947272108        3.19415933271920
H            8.92773090952287      -12.46571083412388        1.91375412342419
H            8.72901111938170      -13.98423647683838        0.21516414607402
H           10.42029083236579      -13.92900729726636        0.74674320013658
H           10.01269204664698      -14.49194205057782       -0.87631263109024
H           11.20639551531742      -11.43757028550224       -1.87498975735649
H            9.67702894195553      -11.93419130781576       -2.62368871084773
H           10.92356253845793      -13.13112919225609       -2.25945856253031
H            9.64241556111621       -9.87177689026874       -1.39425856311306
H            8.75652628440599       -8.00005467056276       -0.10032319762166
H            4.44391887235939       -4.25471049492905       -0.97947233125313
H            3.15713049699319       -2.26977245677106       -1.63893402317016
