6
 energy: -0.810120248711 gnorm: 0.000675896306 xtb: 6.5.0 (97a52f5)
C            1.08668924456612        0.05948044373040       -0.06255364675525
C            2.41501736214805        0.05948245083462       -0.06255332871140
Cl           3.27738821708957       -0.83803915702549        1.12839209181926
Cl           3.27738595758518        0.95700636187627       -1.25349780591346
H            0.53780018653646       -0.49548810942662        0.67384638378203
H            0.53779903207461        0.61444801001082       -0.79895369422118
