44
 energy: -8.593161319436 gnorm: 0.000783257963 xtb: 6.5.0 (97a52f5)
C            1.68888003710842       -0.90670822944929       -0.90042165486549
N            2.54144706437620       -0.20268688641448        0.05638818451428
C            2.46068570012720        1.25666359487309        0.05932090330109
C            3.40790897975185       -0.89468489601640        0.91898247904003
C            4.11372433337915       -0.22344162464991        1.92524634926162
C            4.96347957683783       -0.89828811415550        2.76151991404148
C            5.14639430029914       -2.27281521507535        2.62896463759471
C            6.05277184358672       -3.00200615792760        3.50216461531525
N            6.69566190108481       -2.34707837193338        4.42707385489387
C            7.48966255544082       -3.11794049114745        5.20470465747137
S            8.30607438515996       -2.53030423867590        6.64203554155461
C            9.01477309108804       -4.07199374002244        6.95309815599115
C            8.65732375327299       -4.98353323719730        6.00872398097682
C            9.12118906362857       -6.38237221636084        6.01197800123586
C            9.36538876478673       -7.04539315307729        7.21395942780822
C            9.82766124404371       -8.33936176448464        7.22287261468946
C           10.05993828667005       -9.00524218434676        6.03477076064970
N           10.56025412295180      -10.37462347490499        6.04919088484528
O           10.75122709090562      -10.92167900611975        7.14397989877258
O           10.77828641151777      -10.93610034403526        4.96697464784140
C            9.81743901171336       -8.36522752761167        4.83486261576581
C            9.35656378666808       -7.07171232595375        4.82465732434411
N            7.80345116323357       -4.40063693210331        5.05827729974069
B            7.25244734023756       -5.11849309144020        3.82704526878011
F            8.27740029919876       -5.19604349282210        2.89882223209136
F            6.81966980150453       -6.37708060956192        4.20582243263112
O            6.14805557681959       -4.34000537166614        3.28329429369400
C            4.44786334959537       -2.94846260220778        1.63234844653361
C            3.59638384640653       -2.27658310434702        0.79576344483066
H            0.95955839047309       -0.23181115920505       -1.34207209196141
H            1.14637696641023       -1.70554762713713       -0.39965928576605
H            2.29538749432782       -1.33022753663492       -1.69790661841822
H            1.90297546487208        1.61649851503516       -0.80200911245588
H            3.45907926824753        1.68593704787572        0.01522493245474
H            1.96234513305112        1.60027741326599        0.96289476243786
H            3.97794640037670        0.83583909658635        2.04860244329310
H            5.50483926444138       -0.37962848643644        3.53371481194497
H            9.66951823292474       -4.26710712383746        7.77912963000988
H            9.17487034128570       -6.53700613788189        8.14312650205851
H           10.01383235356955       -8.85663634522870        8.14931764524812
H            9.98853249332671       -8.90232188917702        3.91640501740580
H            9.14222103361969       -6.58331404518015        3.89113112618800
H            4.59874631525292       -4.01063226215770        1.53523302656424
H            3.07531416642901       -2.81513465105071        0.02496599765843
