74
 energy: -13.890972988121 gnorm: 0.000807552317 xtb: 6.5.0 (97a52f5)
C           -1.79937222567541       -3.34997214163111       -3.59507000694594
N           -0.55016553746379       -2.59252911237669       -3.54086569245258
C            0.10024158108448       -2.47562686274598       -2.23662168404229
C            0.00925073465656       -2.01155017968914       -4.69443023606966
C           -0.64936867286404       -2.09726323371359       -5.94022289037092
C           -0.11940502802310       -1.54558298033501       -7.07371861791160
C            1.10996978134464       -0.87263971904300       -7.00997612046933
N            1.75982343991876       -0.28252305901823       -8.07576231721601
C            2.88952825766637        0.25889598840488       -7.71879357737283
C            3.76891355721239        0.93550943438180       -8.64495270142630
C            3.42482471474569        1.03314598735169       -9.99366396585365
C            4.25382711314989        1.66956118237962      -10.88404055513292
C            5.45096429965531        2.22623798039223      -10.45612060605210
C            6.34054643384546        2.91186991387956      -11.41694220857896
O            6.00901071217923        3.02687418816121      -12.58178724277006
O            7.51825506656208        3.38688844911943      -10.91351440775859
C            8.22261614727409        4.05930281974870      -11.92262751035767
C            9.62976348748434        4.44960480228540      -11.47023997725779
N            9.58429929009919        5.54825669406850      -10.51502413974661
C            8.95411055877064        6.74497955896516      -10.82251437264298
O            8.24298951459383        6.84160565927322      -11.80706652690198
O            9.20162032764573        7.77293765405673       -9.95244216025665
C            8.58411197978585        9.02858871559814      -10.33066082313781
C            9.11383964469113        9.46955343701516      -11.70071993299483
C            7.05891264973844        8.87279382944644      -10.35479028494310
C            8.97650529808379       10.06606440477372       -9.27099880406086
C           10.52600444258008        4.80821383901833      -12.63584745678886
O           11.55812268070780        5.40605304555481      -12.42967463279004
O           10.11033953142737        4.38866346673335      -13.86130171817496
C           11.02191123731991        4.81806402619063      -14.84031200343793
C           10.60657547286262        4.40917601504027      -16.21913990484983
C           10.04186394387816        5.32253413455802      -17.09317504895290
C            9.62053598095962        4.92444810643496      -18.34449116948353
C            9.75117332150340        3.60689223419900      -18.72985801742832
C           10.29748971878544        2.68703183842719      -17.86004848998705
C           10.71852898303936        3.08685397950663      -16.60924146987138
C            5.79933149169345        2.13734302010260       -9.11531631924038
C            4.97298489382144        1.50195532557070       -8.22233939403854
S            3.25200613133352        0.09090573624157       -5.99366694393329
C            1.76803606006189       -0.78143652045125       -5.77673249465475
C            1.22831989196416       -1.34182158094035       -4.63499050056940
H           -2.03598945858824       -3.78631211615928       -2.62726214284533
H           -1.71515574267067       -4.15848327676911       -4.31818690043848
H           -2.61939722150933       -2.69590368036171       -3.88419716097599
H           -0.51028540788594       -2.91836736597871       -1.45307522133913
H            0.25720484744624       -1.42756290267069       -1.99051074156702
H            1.06090060134495       -2.98624362378065       -2.25167167336569
H           -1.59274961268675       -2.60936010439607       -5.99683935138737
H           -0.62492115350476       -1.61740659136191       -8.02004469506194
H            2.49622491904648        0.60025089164815      -10.32236489991756
H            3.99317232506270        1.74953383418848      -11.92586784302576
H            7.63880937740177        4.95124077772623      -12.18768233722612
H            8.25562192780948        3.41036503310254      -12.80813361355996
H           10.06948686354156        3.57698352568778      -10.96556351232425
H           10.34899149773670        5.56033757070079       -9.84083951432117
H            8.85668119852725        8.73094638804938      -12.45824693681955
H           10.19870851445405        9.55335589894392      -11.67611352810951
H            8.69541503961522       10.43011996865057      -11.99683687036524
H            6.76857534111531        8.12514808186766      -11.09093838026638
H            6.56939200723395        9.81227592834583      -10.60598242146893
H            6.69749009026964        8.54076302477283       -9.38347120444025
H           10.05934489938654       10.16525722325092       -9.22457073574779
H            8.63000468926687        9.75059336616242       -8.28866047350377
H            8.54753051385654       11.04184468295709       -9.49386950319156
H           12.00301988664562        4.39829750996507      -14.58621140439665
H           11.10159259869066        5.90899371769488      -14.75653132186746
H            9.92417263843664        6.34626702151794      -16.78138012903024
H            9.18329182542211        5.64230852894904      -19.01881112868304
H            9.41964648675332        3.29476566682618      -19.70663840318528
H           10.38921942860874        1.65442323597652      -18.15427883087010
H           11.12514179562446        2.37044801856945      -15.91591559594564
H            6.72788036268365        2.57734183197886       -8.79358047637340
H            5.24564284122071        1.43214671734186       -7.18420950202165
H            1.76361917139786       -1.25700886035763       -3.70840061947006
