20
 energy: -3.592729475509 gnorm: 0.000432594443 xtb: 6.5.0 (97a52f5)
C            1.05308752022689        0.00419040530844        0.24071588202723
N            2.47528109378187       -0.04988959391154       -0.09129797507102
C            3.15420119977265       -1.32528456308076        0.12912223942520
C            3.16457748645815        1.07952350344216       -0.58824634718098
C            4.45940598799881        0.96514151792455       -1.10063522420338
C            5.12994302768344        2.06692221151479       -1.58275871522415
C            4.52688605845461        3.30949203421748       -1.56592417167278
C            3.24710949422299        3.44434602966952       -1.06405976945274
C            2.57262485763572        2.34515545856053       -0.58152938271078
H            0.64072368289585       -0.99782198914701        0.34707441006350
H            0.50095784418763        0.51054859501007       -0.54936675062047
H            0.90823686290127        0.54011115317124        1.17740979803103
H            2.55179258509017       -1.98258571821793        0.75357097955636
H            4.10459631907468       -1.16325880929416        0.63482798552792
H            3.33648885320419       -1.82210733730087       -0.82225241471394
H            4.93174912470501       -0.00067516737251       -1.12997445253968
H            6.12790105338380        1.95977507153472       -1.97602542914588
H            5.05341786723163        4.17085005591571       -1.94364220033208
H            2.77553303236593        4.41359105408327       -1.04875842458469
H            1.58118604872643        2.46154608797246       -0.18122003717837
