19
 energy: -3.652729723919 gnorm: 0.000941674136 xtb: 6.5.0 (97a52f5)
C            1.12940370066743       -0.17450505472609       -0.11350428964632
N            2.57204163247668       -0.03059713335422       -0.07186784587757
C            3.10414314932441        0.94071335702310       -0.90589640121431
O            2.46411913691419        1.67820619179107       -1.61156007371587
C            3.35649088901078       -0.86336340144741        0.78252727518143
C            4.61090108670704       -0.45295291461290        1.22922545736178
C            5.36094845718143       -1.25547558925408        2.05899978679407
C            4.87566851272659       -2.48340144085467        2.46027949943964
C            3.63419592317212       -2.90513296997139        2.02968147123492
C            2.88122999712202       -2.10432410764903        1.20092145503996
H            0.69638873520075        0.71262643716438       -0.57299348678508
H            0.72872256741191       -0.28064364766452        0.89229163980128
H            0.85572200570695       -1.04179994909491       -0.70980177134968
H            4.17726061637292        1.03695686234361       -0.95629927639166
H            4.98273047713802        0.51448172628263        0.94234505195266
H            6.32783291455668       -0.92271655540783        2.39930148306601
H            5.46407093488323       -3.11086845881762        3.10935193945998
H            3.25469842660825       -3.86449352574928        2.34097762324683
H            1.91993083681873       -2.44284982600078        0.85761046240193
