32
 energy: -5.148923043166 gnorm: 0.000682581564 xtb: 6.5.0 (97a52f5)
Br          -1.52332594110443        0.66369776823345       -0.33559515942714
C            0.31682271641300        0.33333461380771       -0.17143949750077
C            1.19359768315684        1.38724791362335       -0.05826867779111
C            2.54582051363872        1.14608805419704        0.06521298324381
C            3.03708610721202       -0.15710217750370        0.07395035309706
N            4.42931190202178       -0.38492998310941        0.21284419724876
C            5.12149400125899       -1.52993815649481        0.09651761187942
C            6.48394816429812       -1.61272085642200        0.29308738543702
C            7.20295872832490       -2.78215689211364        0.16375244487571
N            8.52284491205687       -2.86604292139634        0.39994031015027
C            9.38079469245602       -3.99038330831133        0.29746972481865
C            8.99105501866432       -5.14537634947024       -0.37493844444182
C            9.84400630872517       -6.22539624076146       -0.46785947204693
C           11.09202820180514       -6.16649710420403        0.10831729737317
Br          12.24860819687225       -7.63891235048792       -0.01950824714043
C           11.49781456185685       -5.03399896149654        0.77575243816606
C           10.65009464918278       -3.95017623413283        0.86922273015663
C            2.13220480202583       -1.20884946133348       -0.04134984122233
C            0.78059752640210       -0.96180506321199       -0.16298217827987
H            0.81124617802970        2.39576639996741       -0.06684835538572
H            3.23503324917246        1.96786533220847        0.15265544939631
H            4.97462479607231        0.44550483339540        0.43161049853950
H            4.58310343499370       -2.42143676069875       -0.16877971764693
H            7.01293145862153       -0.71864779541835        0.56875515669808
H            6.68387044243748       -3.68044498259453       -0.11772213742318
H            8.97677352008333       -2.01137471187051        0.71355878148119
H            8.02292612238910       -5.18633353307508       -0.84034437214245
H            9.54685075567391       -7.12010623981449       -0.99192770302323
H           12.47986265637778       -5.00672799445008        1.22122726638358
H           10.96163954216580       -3.06367376850662        1.39365324863131
H            2.48978274746675       -2.22213068568159       -0.02192454191330
H            0.07653235124923       -1.77444238287514       -0.24904953218975
