7
 energy: -1.461632674078 gnorm: 0.000731016189 xtb: 6.5.0 (97a52f5)
C            0.98321966021855       -0.06518481487330        0.02414868975217
C            2.30195755413703       -0.10999087194811       -0.01885778390484
C            3.00876174598184       -0.96392804021897       -0.85952320271273
N            3.58554032385514       -1.68106710366933       -1.56746568303747
H            0.45873066009475        0.60149891974900        0.68033191690982
H            0.39476775832582       -0.70408712556393       -0.60395512246422
H            2.88901229738688        0.53456903652465        0.61505118545725
