86
 energy: -18.182999531544 gnorm: 0.000396841484 xtb: 6.5.0 (97a52f5)
C            0.33592389662139        1.45780759021627        1.14588138621925
N            1.36439912596147        0.81198437691004        0.32829840302696
C            1.56107898973460       -0.59552123715293        0.45660151557317
C            2.78269621760912       -1.17056743299400        0.10538497084361
C            2.99458124081341       -2.52377663512655        0.23983509027934
C            1.99236015587706       -3.33554880559823        0.73278859619371
C            0.77877422462665       -2.78478364118005        1.09473428798278
C            0.56445772881607       -1.43106806106871        0.96202725520713
C            2.13541143870942        1.61313496284820       -0.56709831837044
C            2.45574566663268        1.14632030070779       -1.84435532109082
C            3.19720689693216        1.90745039888133       -2.71183214156549
C            3.66191477288849        3.17553727777027       -2.34616732582709
C            4.45173891455859        3.99423156755416       -3.28228415900950
C            4.23858881268562        3.89154859512952       -4.64635314684128
C            4.95836019297541        4.64545083688214       -5.55134017510044
C            5.93612769018620        5.53808054659355       -5.14373120366059
C            6.68393474236425        6.31971591240049       -6.14408297558349
C            6.12309129020668        6.62896713447135       -7.38847123379250
C            6.82621402281899        7.33269300839179       -8.33441301579831
C            8.13249416140941        7.76378532099239       -8.09076678001435
N            8.86654034565269        8.50278908575412       -9.05272655082562
C            8.17049537966656        9.05544304603694      -10.21479210334593
C           10.28005273627368        8.72337977571862       -8.94433113832300
C           10.82378002637947        9.99454286889139       -9.13076753840551
C           12.18072900395187       10.20062159434686       -9.02530444289722
C           13.02282575270239        9.14449522988278       -8.73558970298753
C           12.50200202135591        7.87822745818559       -8.55273465299037
C           11.14598014094428        7.66793254874997       -8.65718332936184
C            8.68904758262320        7.47224251940879       -6.84425220911811
C            7.98360380386240        6.77165291380555       -5.90076775582318
C            6.19836085026540        5.66670456350419       -3.74317598819129
N            7.17340649725501        6.50011135070377       -3.33535840204484
C            7.38781745679063        6.57226280166333       -2.03944477742323
C            8.54444011602872        7.38826770033155       -1.61208289790698
C            9.43404657645559        6.95212094325179       -0.63022438281869
C           10.52358736619322        7.71706401518995       -0.27944046068218
C           10.75555998981847        8.92308852731307       -0.91060525992314
C            9.89761971915029        9.35926704127848       -1.90069808162966
C            8.80629245761190        8.59710321489634       -2.25245852730107
C            6.57026791395334        5.87747689841735       -1.10210412405412
C            6.69687517084860        6.09402386014466        0.35471047536994
C            6.55642968367573        5.01424261969196        1.22322767574259
C            6.63430849261814        5.19094725652984        2.58648918778701
C            6.84282475615491        6.45156896149484        3.10983197155723
C            6.96328046827022        7.53708766458474        2.26506121490626
C            6.88327336519812        7.36356689296902        0.90172010220425
N            5.64278721028406        5.02770157358095       -1.48713150400884
C            5.44831593478909        4.90541923549385       -2.81359651844110
C            3.34148796506966        3.63504682702123       -1.06547028274784
C            2.59440001933355        2.87990732958662       -0.19839491582232
H            0.50315102163388        1.23953519904749        2.19900288052506
H           -0.65082900041848        1.10041397224928        0.85854063200519
H            0.34802137502233        2.53655683500805        1.00707698954026
H            3.57224720009744       -0.53528678782105       -0.25550099719523
H            3.94529049550236       -2.94993318746577       -0.03638678942951
H            2.15807413018424       -4.39531473917919        0.83804484075633
H           -0.00291312579812       -3.41738285149846        1.48281002272554
H           -0.38526993917845       -1.01248086370857        1.24276626500072
H            2.09563811323947        0.17787459276107       -2.14500296390187
H            3.44741744955388        1.51590020805194       -3.68226515349755
H            3.47522651094177        3.22447946134674       -5.00702585763759
H            4.77231939658340        4.51599020431677       -6.60294451677430
H            5.11107250044656        6.32987065486138       -7.59763443553585
H            6.36560651331226        7.55426755518397       -9.28045034617253
H            7.78615189175554        8.25079649160587      -10.83874544485019
H            8.84835740217751        9.65317444162675      -10.82075928757000
H            7.34451183895092        9.68710476962599       -9.89300674260794
H           10.16393022888997       10.81955183415142       -9.33485777449064
H           12.58711443212423       11.18896916753789       -9.16583547038847
H           14.08486533218053        9.30823001040535       -8.65269813813567
H           13.15880265380437        7.05330513003068       -8.32961477607772
H           10.73628136976725        6.68080468008710       -8.53147561461438
H            9.67868396027749        7.82772701423984       -6.61886963355078
H            8.43250874639042        6.56895094669989       -4.94631248381779
H            9.25949535387577        6.00458569933820       -0.15065344307201
H           11.19820075179254        7.37194327725789        0.48700141357608
H           11.60951380315683        9.52037696125506       -0.63558555177531
H           10.08420985210244       10.29489699334172       -2.40209352601570
H            8.14077772472312        8.92201357105411       -3.03366656378911
H            6.37999788761719        4.03723000050859        0.80720632256781
H            6.52844127392786        4.34469525706150        3.24548096258668
H            6.90469341389112        6.58921736088969        4.17700874880958
H            7.11790862902258        8.52249999826463        2.67336265548639
H            6.96163603600746        8.21065017733742        0.24261141759792
H            3.70302113109722        4.59949831731443       -0.75771803589021
H            2.38973465968555        3.24411931217136        0.79293960646163
