16
 energy: -2.607355395464 gnorm: 0.000753996877 xtb: 6.5.0 (97a52f5)
C           -1.39981853163143        1.62285898053214        0.01709655474808
N           -0.24677645428615        0.74376608959822        0.02416335996329
C            1.15439177127821        1.19874402383757        0.08224521394870
C            1.98449211499208       -0.09263399327061       -0.02230447497618
C            0.96117269780487       -1.25141781680029        0.04081724097864
C           -0.41214445537092       -0.62917877878238       -0.00656805941439
O           -1.46718540510208       -1.22308856031182       -0.06878758596338
H           -1.14393624432431        2.58540315745355       -0.42175610516008
H           -1.75264304754629        1.77421736593706        1.03525761991082
H           -2.19735675215750        1.16399125541004       -0.56517954047746
H            1.31861631304397        1.72630836727973        1.02648147145586
H            1.34934049842051        1.89790714831431       -0.73660354231977
H            2.73021981451475       -0.16271429038330        0.77892359362849
H            2.54117388080539       -0.11931036422445       -0.96675818195692
H            1.06103465014889       -1.82534348358036        0.96772424700203
H            1.07715914941001       -1.95790910100941       -0.78757181136777
