16
 energy: -2.696803026661 gnorm: 0.000749981033 xtb: 6.5.0 (97a52f5)
C            1.23163385478905       -0.14716559128422        0.22519687726675
N            2.63584524005379       -0.01708619230659       -0.11300529904215
C            3.41945748182658        1.23628742541957       -0.17647509510561
C            4.81314617607798        0.79040364132741       -0.66900617648386
C            4.74325611193565       -0.75761258339636       -0.78667219548774
C            3.33986629988091       -1.13750825836453       -0.46168029258967
S            2.70108759735134       -2.55695599267672       -0.49701461834318
H            0.62201669105337        0.43343408680355       -0.46371509648013
H            1.05681006601633        0.19133560884252        1.24425333577062
H            0.95602934300484       -1.20028770738038        0.14552286353006
H            3.44952655073712        1.69140024361393        0.81808550493533
H            2.93184709405989        1.93824039663062       -0.85967960616701
H            5.60269501279787        1.10453542252701        0.02395465446361
H            5.05087419292443        1.24649145719478       -1.63730709340608
H            5.42460850967901       -1.25187910350738       -0.08433684645713
H            5.00039977781206       -1.11592285344298       -1.79038091640378
