21
 energy: -3.382893319631 gnorm: 0.000747855639 xtb: 6.5.0 (97a52f5)
C            1.15751922478715       -0.06341228509531        0.39252465260747
N            2.50735100680947       -0.06802335283943       -0.13891259297623
C            3.34722729781439       -1.26661841878153        0.04202874631405
C            4.41717798612614       -1.38600951682298       -1.03945821780594
C            5.17633165375366       -0.07025179109358       -1.18382426889862
N            4.26493704305021        1.07924797647944       -1.33062068600326
C            4.72850029897734        2.26872501411181       -2.01993344245417
C            2.97592578677697        1.06851290944841       -0.79811028738490
O            2.25440591911644        2.05205723580376       -0.91504650854915
H            0.56043385904390       -0.83390161126271       -0.09077579444499
H            0.69951990189204        0.90636344772835        0.20442154353502
H            1.17609265811901       -0.24164517688447        1.46566209222150
H            2.69669057498812       -2.14795338104686        0.05585919102250
H            3.80894081591492       -1.20509187327760        1.03241289929649
H            3.94168020154089       -1.63777775710933       -1.99485931483824
H            5.10628088818062       -2.21246034646416       -0.81816666805474
H            5.85084903719819       -0.09283437351999       -2.04674485332176
H            5.80214714244467        0.10933420009835       -0.30407621040732
H            5.01792688872290        2.02516808342243       -3.04066200862317
H            5.58086289556606        2.69714163857150       -1.49547682986732
H            3.92583891917660        3.00476937853393       -2.04705144136716
