18
 energy: -2.943743697892 gnorm: 0.000937771461 xtb: 6.5.0 (97a52f5)
C            2.44300513826217        0.33015043507237        0.21718674138632
N            1.10562815912387       -0.21620056878163        0.08933127265105
C            0.76672008191026       -1.65502205610536        0.06291646228143
C           -0.77131962235457       -1.65742800556938       -0.01004544797184
N           -1.11666499800121       -0.21991686305214        0.00458609934640
C           -2.45513773217050        0.32454106444352       -0.11644260268722
C           -0.00752559544327        0.62109658942032        0.05877408763587
O           -0.00888071799882        1.84034840018208        0.07550084227312
H            3.15332528537265       -0.27270022870742       -0.34383580484249
H            2.73574722464473        0.34913646647535        1.26431606919657
H            2.45508878194832        1.34759214078536       -0.16950331066964
H            1.15028913146098       -2.13949858620746        0.96557707183366
H            1.23269287185697       -2.12506718814532       -0.80822500399691
H           -1.23583104740017       -2.15547886667241        0.84623610263009
H           -1.15165194587888       -2.11638356648013       -0.92735192429101
H           -3.18008285260236       -0.34324892182922        0.34405537712638
H           -2.70550363842843        0.45692300385062       -1.16666955951287
H           -2.49580852430173        1.29294675132081        0.37879352761106
