12
 energy: -1.901584442438 gnorm: 0.000617889466 xtb: 6.5.0 (97a52f5)
C            0.95644890176118       -0.01031700530399       -0.08994068939271
N            2.40660089555196       -0.00471053177855       -0.00311233556528
C            3.11703299405499        0.07144217500987        1.17707664081526
C            2.40810647354757        0.15577599077634        2.48402548895437
O            4.33377362496222        0.07101440724355        1.17046770246179
H            0.62371339209849       -0.07715289426265       -1.12568015361519
H            0.55123662616377        0.90609115557168        0.33666388844289
H            0.55124089760864       -0.86429873162487        0.45090493811307
H            2.92159226036746       -0.06144211674020       -0.88227164097324
H            1.32615431155934        0.14843640869810        2.37024388192823
H            2.69097155503610        1.07109251849247        3.00208721872281
H            2.69096806728829       -0.68537137608176        3.11542506010800
