17
 energy: -3.160132643866 gnorm: 0.000796212617 xtb: 6.5.0 (97a52f5)
C            0.95972435613393       -0.12656818058068       -0.07439003669700
N            2.29734770822352        0.21985077717358        0.37185962548102
C            3.11896783237243       -0.60403931151178        1.14767072466678
C            4.42760710098558       -0.21113108718436        1.43663019906950
C            5.25125685109101       -1.01194001406704        2.19519250325769
C            4.78812837893819       -2.21917159528828        2.68280469992079
C            3.49540649932919       -2.62301818087630        2.40807772889425
C            2.66765389941551       -1.82659720468884        1.64898976760365
H            0.50550975725453        0.67968692487700       -0.65160884485219
H            0.32042152823209       -0.32723809807625        0.78435439261259
H            0.99154675425247       -1.01864547147101       -0.69899879188194
H            2.68479608760585        1.05975090277145       -0.05824696950104
H            4.78405333763852        0.73024108272108        1.05610093276781
H            6.25951817080877       -0.69686004582842        2.40917835022956
H            5.43411227985403       -2.84462113325525        3.27710486652346
H            3.13462815875623       -3.56409434070374        2.79013617278620
H            1.66268129910838       -2.14412502401064        1.43474467911911
