6
 energy: -0.760916458395 gnorm: 0.000243971569 xtb: 6.5.0 (97a52f5)
C            1.02037936682614        0.08353660995830        0.04474986737341
O            2.41819711142918        0.09345161415288        0.03761838507136
H            0.63981300214436        0.19974349861766        1.06216757716674
H            0.63980976683408       -0.84386886022671       -0.38948430160693
H            0.66694224663144        0.92186820710177       -0.55793729785366
H            2.78081850613480       -0.65026106960390        0.57228576984909
