43
 energy: -8.599111538717 gnorm: 0.000648233594 xtb: 6.5.0 (97a52f5)
C            1.52593301661372       -0.92444282463133        2.44288672210653
O            2.80164950473033       -0.68475886094446        1.95109163209669
C            3.62555244502592       -0.31647807806573        2.97977666297662
O            3.29021689074687       -0.34855395693737        4.14876674799793
C            4.99995406418603        0.08903527607657        2.61704915913398
C            5.34995704131773        0.99285958153013        1.65971758906123
C            4.40764277702292        1.81825478141363        0.87066251906768
O            3.29952988639988        2.08533406455391        1.29725216642218
O            4.87189889134746        2.27776813957633       -0.33120155402858
C            3.88062555195050        3.02543490855960       -0.95558031398739
C            6.79461452849314        1.12125031297555        1.50738247621958
C            7.52731038349594        1.87306225751844        0.67210808647511
C            9.02239303468747        1.69202573989336        0.86975410263234
C            9.28487040587610        0.19307239464079        0.71341408863342
C           10.16657588654478       -0.41082430832086       -0.16138403781928
C           10.27465381887542       -1.78681475589106       -0.17308405538124
C            9.50909318408186       -2.55794069117044        0.68087319687738
C            8.62609691911785       -1.96303837825413        1.55816545688426
C            8.51268263219050       -0.58754505624734        1.57733815010807
C            7.59419605018506        0.25611552950508        2.46759016141125
S            6.37334947240708       -0.62467788270918        3.44529990929185
C            8.51435009429905        1.22970228194187        3.21190927415507
C            8.62642241742691        1.39642464657461        4.57747476219100
C            9.51088486613714        2.33080491468080        5.07567082773849
C           10.27883037785054        3.09544274217783        4.21797278951767
C           10.17080265655220        2.93715832496780        2.85110947835859
C            9.28751850946478        2.00452201458684        2.34369347995211
H            1.14792414262421        0.00455863062611        2.87753413452867
H            1.58095157564723       -1.69791616602103        3.21276864043142
H            0.88165415736284       -1.24721663140897        1.62232640303150
H            4.25536847380729        3.39626327571861       -1.91151015087130
H            3.60694493063257        3.86138360236718       -0.30765563615106
H            3.00850736061818        2.38676581971796       -1.11397560107828
H            7.08414879136337        2.52365786949994       -0.05948146607618
H            9.63159712652870        2.30306954591842        0.18999353457813
H           10.75735156896852        0.19579011844877       -0.82535913146618
H           10.95970256378193       -2.26297909736033       -0.85469685922972
H            9.60054003210111       -3.63154529931274        0.66089617841215
H            8.02197653834457       -2.55349158362080        2.22387536258355
H            8.01861692109880        0.80074756461638        5.23518665329630
H            9.60089433580774        2.46642295083021        6.14097007058190
H           10.96503949174013        3.82284342155818        4.61880389496398
H           10.76294668250192        3.53149286039674        2.17727449437389
