107
 energy: -21.738373761154 gnorm: 0.000165908796 xtb: 6.5.0 (97a52f5)
C            1.39273221446453       -0.34343707691841       -1.46818968764894
O            2.78107545039945       -0.33653085742355       -1.56255875023118
C            3.32125851695800       -1.04345027055739       -0.52152394069081
O            2.65540236844270       -1.59707665620760        0.33693085766030
C            4.80775868367302       -1.10341931984921       -0.47256750735551
C            5.52642879945668       -0.63720098306127        0.63743742550226
C            5.09568044123534       -0.05811110331652        1.84693523275509
C            3.70310900342285        0.34334635563101        2.15422693044187
C            6.24005755926176        0.13653241380870        2.65644533064787
C            6.27981086662612        0.63013420466460        4.03066147172495
C            5.32430386994841        0.24228177025839        4.98654191184718
C            5.16086343630947        1.00158665839074        6.23975048377988
C            4.89114061949736        0.34423399952693        7.44449121719762
C            4.73434404796747        1.04934046328308        8.61535242344648
C            4.83818880070222        2.42636515362103        8.61538812309899
C            5.09651339461421        3.09756914086340        7.43664779439109
C            5.25283671369918        2.39740353259756        6.26303798624595
C            4.46890406313367       -0.93993062527159        4.77847393966733
C            3.14716972882414       -0.95104108440258        5.23715761370683
C            2.32819782274704       -2.03307489300497        5.01159454749693
C            2.80595641385779       -3.13426024282420        4.32930248918751
C            4.11206857004068       -3.15384154932798        3.88236620622903
C            4.93638851939639       -2.07647281123192        4.10946696698066
C            7.39796049449026        1.52349252177070        4.40733573029574
C            8.10730413398829        1.33421075152621        5.59500164536982
C            9.15624100550833        2.15993299383286        5.92894446445959
C            9.52385042344548        3.18829979413257        5.08420528804887
C            8.83883582186752        3.38853664861903        3.90214495763361
C            7.78812558192962        2.56600048640222        3.56498707097122
C            7.38859377944249       -0.26408327803953        1.88712299436127
C            8.81313463964330       -0.23719665051710        2.26184765520322
N            6.92467447054406       -0.69641253672905        0.72730196986812
B            7.83215673910693       -1.15265549645807       -0.41360712422901
F            8.62994239138009       -0.08539348869833       -0.81442344267436
F            8.59975890947223       -2.23220413368917        0.01265809342876
N            6.95603040271421       -1.59519718961306       -1.58368480322976
C            7.44848954527692       -2.05048666799311       -2.72289490734909
C            8.88439538310948       -2.11640930169519       -3.04576809922557
C            6.31708649773980       -2.42995163702819       -3.52792186753457
C            6.38860460140959       -2.94313267867641       -4.89311809777081
C            5.46351885132137       -2.55936270400638       -5.88017117574466
C            5.32481176723570       -3.33636053379501       -7.12551947279231
C            5.09318165509862       -2.69497227851526       -8.34667867808638
C            4.95895190100694       -3.41640481986106       -9.51038383046496
C            5.04795412426659       -4.79426565599483       -9.48686819495729
C            5.26859356887512       -5.44982016726793       -8.29178724500757
C            5.40217036202666       -4.73326344002715       -7.12528828263003
C            4.61594286428475       -1.36481272724307       -5.71390289266117
C            3.30559888992654       -1.34858454804518       -6.20425347463943
C            2.49222723407344       -0.25515761718916       -6.01604059915882
C            2.96464086176756        0.85268963041342       -5.34080149228158
C            4.26002748944884        0.86721539165223       -4.86339147896452
C            5.07885360845172       -0.22160661115193       -5.05305124769256
C            7.50389912134603       -3.85726340804830       -5.22603650188776
C            8.25175892393936       -3.69122114447353       -6.39336866580351
C            9.29685831122170       -4.53680952456529       -6.68724094008930
C            9.62188812334008       -5.56245520228316       -5.82196767339475
C            8.89798475772930       -5.74016456495639       -4.65964220451897
C            7.85098623954625       -4.89771333174149       -4.36252267708986
C            5.15137107712745       -2.19925502010612       -2.75963813477936
C            3.76267792031439       -2.58143984004101       -3.10678273591059
C            5.55456199069129       -1.61260250540739       -1.54440193072083
H            1.09535044176510        0.14456184696862       -0.53787855468912
H            1.03746750066820       -1.37603057310640       -1.46572732452063
H            0.96995230368688        0.19280187107846       -2.31992756575581
H            3.29684962009590        0.96024381917002        1.35236569990842
H            3.64652727614799        0.91756465892562        3.07869110081768
H            3.06483505821858       -0.53590514430107        2.25044181892400
H            4.81926966928424       -0.72957511577537        7.44654326881096
H            4.53120889977488        0.52586327392660        9.53516058028625
H            4.71659683150218        2.97662463771151        9.53400221789559
H            5.17605828183031        4.17228191100235        7.43617606780262
H            5.44602747967100        2.92222599286943        5.34382672583021
H            2.76740069205483       -0.08531706965896        5.75144718616087
H            1.30847704778776       -2.01758401508788        5.35979534076352
H            2.15893000765213       -3.97529872123142        4.14136037301444
H            4.48318490533303       -4.01014347519548        3.34357198295798
H            5.95254035173460       -2.09447413749150        3.75644311093424
H            7.82308689665611        0.52749716066016        6.24832540136568
H            9.69227496664029        2.00246554718941        6.85040861880114
H           10.34691562803554        3.83277073881877        5.34620240269686
H            9.12918901338804        4.18833239853989        3.24095268272452
H            7.25398916896947        2.71675881003378        2.64262368141129
H            8.95482097995544       -0.56056764564097        3.29324228525863
H            9.22462122515639        0.76607261695895        2.15296054242711
H            9.38330293374213       -0.90320439401890        1.61332281068848
H            9.44595692587078       -1.44994702091535       -2.39017191410626
H            9.07009059422290       -1.81739380122230       -4.07752300512415
H            9.26887559587835       -3.12598820788386       -2.90209796167398
H            5.03276410921715       -1.62064706096986       -8.36685918756091
H            4.78512309730695       -2.90511750558709      -10.44296513968028
H            4.94412384635289       -5.35736187854155      -10.39986611096734
H            5.33649646765733       -6.52516725680836       -8.27292627174317
H            5.56568389598671       -5.24591669185862       -6.19355210333004
H            2.92964083140172       -2.21913973616731       -6.71314709643321
H            1.48135131804018       -0.26632246064593       -6.38930667607859
H            2.32249098099008        1.70378895867160       -5.18402975288141
H            4.62708883893466        1.72907636236166       -4.33075803121608
H            6.08652709179426       -0.20766304224721       -4.67628412465616
H            8.00024980662155       -2.88685334644490       -7.06281104678807
H            9.86311457772691       -4.39711779218866       -7.59336540978215
H           10.44198428881304       -6.22251437361967       -6.05258552445772
H            9.15492785874706       -6.53803672687611       -3.98249141391262
H            7.28630347052678       -5.03107038558199       -3.45579941975234
H            3.73916643172040       -3.26287442197032       -3.95721077209013
H            3.17290395122686       -1.69899113803837       -3.35497714763227
H            3.27982447257409       -3.07968319961580       -2.26560340913916
