12
 energy: -1.840659940242 gnorm: 0.000905049847 xtb: 6.5.0 (97a52f5)
C            1.09295766462261        0.12243628090831       -0.14327244912839
O            2.46845522784551       -0.05796820215909       -0.03568115439401
C            3.12855895223328        0.96460537506115       -0.64554272657394
O            2.52094596005487        1.86848850761659       -1.18461495347671
O            4.48972365939592        0.94427729773915       -0.63342126063281
C            4.99558523894612        2.05755425500250       -1.29737366120395
H            0.58884158594331       -0.70968203261098        0.35300735661610
H            0.82340576418249        0.15261252464142       -1.20207670462060
H            0.82340878714789        1.06836495988942        0.33337991348592
H            6.08670711467810        2.01645720009285       -1.27286295097330
H            4.63820470345146        2.95997863966304       -0.79483862891410
H            4.63820534149841        2.04429519415560       -2.33020278018420
