18
 energy: -2.732684801932 gnorm: 0.000404269996 xtb: 6.5.0 (97a52f5)
C            0.94392636325068       -0.09644007937964       -0.00710468078013
C            2.26221363743393       -0.08390667080697       -0.01739656635773
C            3.05329122550958        0.89138708730831       -0.81810031816070
C            4.56733017469057        0.71442197840371       -0.67281727555566
C            5.37057867036348        1.72021111900376       -1.49855714932141
C            6.87287270956939        1.53781391797114       -1.34881256733814
H            0.38714920558003       -0.80571681083634        0.57520259385846
H            0.38035953289021        0.60883910310136       -0.58612817396284
H            2.80687954379400       -0.80344853896685        0.57333636557674
H            2.77207125628407        1.91119388121556       -0.52681841391004
H            2.77206880020883        0.80426921719110       -1.87510553285044
H            4.84723872421142       -0.30652125941856       -0.96102874993489
H            4.84724120705620        0.79830680789930        0.38470480228227
H            5.08223997579094        2.73975391677618       -1.20884650666743
H            5.08223912889902        1.63458161689829       -2.55499775433100
H            7.18340894332961        1.65459635473750       -0.30842431025738
H            7.43689267468089        2.26118528665216       -1.94269033644181
H            7.18340822645714        0.54008307224998       -1.66595542584786
