40
 energy: -7.976715253417 gnorm: 0.000684198883 xtb: 6.5.0 (97a52f5)
C            1.19528855866794       -0.25902040511383       -0.06100105780346
O            2.56609740399256       -0.04428289438788       -0.10124361823452
C            3.20279863961798       -1.00032490431008        0.63752727855424
O            2.63407709346933       -1.95568331350806        1.13135524426534
C            4.67604109748572       -0.87806534080214        0.77905285038082
C            5.43992215783165        0.29493492800983        1.00316916346056
C            4.97128295138407        1.66105654203675        1.27986159302489
O            3.81178420889913        1.88120172605832        1.58254624020439
O            5.91774440701757        2.64764835643401        1.20288197572122
C            5.32957025716860        3.87504653005859        1.48321564751817
C            6.77930041118548       -0.09837968958237        0.98553086456496
C            7.97135643490705        0.61519027389889        1.13823497547964
C            9.11554930465133       -0.09912111360350        1.07609609601378
C            9.09171487648543       -1.50437113798754        0.87041880952852
C           10.35043791126490       -2.26293116917893        0.79880296213834
C           10.35199180441822       -3.51798328570659        0.19600796201090
C           11.50525456545786       -4.26391812604999        0.11091305640956
C           12.68346131806952       -3.77257211764488        0.63316743747210
C           12.70175075416101       -2.53563138759192        1.24391886065415
C           11.54935686482441       -1.78705621192161        1.32914016111997
N            7.97460794060912       -2.18337922123521        0.71314952600259
N            6.83690959698517       -1.46681360811688        0.78332398312915
C            5.54422374339571       -1.94686734877404        0.67475256631113
C            5.18721438775877       -3.35422403934091        0.43407038650460
H            0.69769420462264        0.51499397318190       -0.64922261209831
H            0.86816730268782       -0.20866030341897        0.98082199263684
H            0.97727749315512       -1.24847591749734       -0.47015062119468
H            6.08938746082617        4.65794345487324        1.43964109667900
H            4.88608813946225        3.83406557852549        2.48111266043809
H            4.54739967403769        4.06587605674998        0.74433481915128
H            7.94886486919468        1.68029784513164        1.28444607821119
H           10.06037222918215        0.40713233426331        1.15996346674406
H            9.42751864232141       -3.89601594276322       -0.20456442344190
H           11.48727082343753       -5.23164939853216       -0.36206929730893
H           13.58700021360007       -4.35613017209837        0.56849734048591
H           13.62059562610469       -2.15629560862880        1.65931520747646
H           11.57039124870810       -0.83654259030488        1.83137063112393
H            5.95540728501574       -4.01756138447331        0.83123198815533
H            5.08381171160149       -3.54864336077057       -0.63327925862117
H            4.23887638633588       -3.59338760587640        0.91803796713135
