33
 energy: -6.247805899179 gnorm: 0.000429989432 xtb: 6.5.0 (97a52f5)
C            1.01397636222527        0.14621983002231        0.13239903840307
O            2.38766920385016       -0.04478383418440        0.19089143141677
C            3.02744764871591        1.11221312280342       -0.15069212570049
O            2.45247282009920        2.16825332839515       -0.33438608709687
C            4.50959852338336        1.06717376304797       -0.23747802850212
C            5.32056009246361        0.07686020285860       -0.84383459564377
C            4.90698196245685       -1.08725452631772       -1.63920701177260
O            3.75890056238942       -1.20825208410808       -2.02871156207068
O            5.88770888126340       -1.99708476015671       -1.92917586901436
C            5.34826286163712       -3.03499925982151       -2.68017971499685
C            6.64525584894389        0.45744256815865       -0.61328405371735
C            7.86533364497848       -0.11747831205651       -0.97319635792830
C            8.97971744055629        0.54853526566870       -0.59299203859651
C            8.89089809480140        1.76107426244317        0.12702265578264
C           10.14043651132674        2.45963175082029        0.52552786345511
N            7.75745433362983        2.31750821669335        0.46670024558768
N            6.64668049639125        1.65271531568647        0.08578934920778
C            5.33543909694864        2.03267906210245        0.30442503737027
C            4.91522360554237        3.24297613035179        1.02802567668264
H            0.51398964087982       -0.78465065754524        0.40846414356350
H            0.74876487802336        0.42708108876813       -0.89030180300754
H            0.73636001352850        0.94771674092074        0.82132370162464
H            6.13051459454169       -3.76355980375222       -2.90264859975695
H            4.93983581615081       -2.62416220191575       -3.60672862737219
H            4.54684690593845       -3.50518953402745       -2.10483226701824
H            7.88880656272882       -1.04283043830339       -1.52044596547226
H            9.95112295152701        0.15549677090742       -0.83867272728719
H           11.02785991806681        1.91270404228317        0.20706874396640
H           10.18312190119792        2.57368283704339        1.60850604163873
H           10.17777793548953        3.45421468208139        0.08154442306332
H            5.72466737660240        3.97228195250463        1.05788648210684
H            4.63215170424578        3.00034822323753        2.05223229625871
H            4.05404180947585        3.69841625539034        0.53638030482614
