68
 energy: -14.283889096793 gnorm: 0.000406945958 xtb: 6.5.0 (97a52f5)
C            1.20918836065124        1.16625681784825       -0.47130605098437
O            2.52344852993096        1.39403989635572       -0.07858217742587
C            3.28129958598026        0.29259897493168       -0.36311166230741
O            2.84080349187219       -0.71105960089811       -0.89083807214185
C            4.71141021146798        0.35899254097981        0.01109622712544
C            5.54086573751121       -0.72903841510158       -0.21208164254124
C            6.86376590936606       -0.68140588032339        0.15258013760267
C            7.40412223880615        0.45697665848649        0.75292403548289
C            8.79789145791907        0.47193632288547        1.16399611644949
C            9.46977817331129        1.49769062720904        1.77141325081559
C           10.81212033575826        1.19836318530911        2.09141609011632
C           11.19709242381432       -0.06101399439255        1.73437232272027
C           12.49779330283858       -0.62680889706780        1.99006051078778
N           12.88958353529162       -1.85014053539688        1.61929622421841
N           14.09294028040296       -2.04195814303264        2.04963459391150
C           14.48517215074365       -0.94439067984962        2.70075054816809
C           15.76487087773896       -0.79091847902529        3.37170675720322
C           16.64981317101692       -1.86114131959584        3.47815792794456
C           17.82168091687615       -1.72695485125318        4.17902509768419
C           18.14600384130652       -0.51760450515090        4.78675599995363
C           19.35148937003033       -0.40511366182300        5.59023649062267
N           19.77890932759160        0.72269357569546        6.16287766575542
N           20.84645577378643        0.45482318714278        6.83968651537320
C           21.11519755145933       -0.84811326659511        6.70737428773033
C           22.20609167622505       -1.53505055847343        7.35175859397410
C           22.49761191628419       -2.85838343723074        7.19379926200373
C           23.58904829414773       -3.29881774875208        7.97366308331535
C           24.15492115393778       -2.32137709458254        8.74637788496559
C           25.26062071026174       -2.47057255527199        9.67772277423450
C           25.73840784799184       -1.36378985172155       10.38124507720375
C           26.76159481414896       -1.48953478026049       11.28837095343159
C           27.34229210869228       -2.72567743765206       11.52526535423428
C           28.43057608233685       -2.85734657803970       12.51920280311296
O           28.83511067453462       -1.87181420571129       13.10646394247936
O           28.92290076548163       -4.11614699465725       12.72300884664482
C           29.92219373873109       -4.07201122267056       13.68872670084482
C           26.88100718265434       -3.83209558426049       10.82810015378507
C           25.85858270011213       -3.70967562363281        9.91884195059935
S           23.32630865243011       -0.81159199984505        8.46296005895047
O           20.18956353919472       -1.42914762908939        5.89898046320129
C           17.27199653178651        0.55930854166697        4.66037527438300
C           16.09680740450044        0.42288643464849        3.96602632080386
O           13.49996783361152       -0.00932544672626        2.66951086731272
S            9.88035123469967       -0.88054997890808        0.95494813068664
C            6.56108590814222        1.55018296598317        0.96519581602750
C            5.23778732148275        1.49880692143818        0.60008813891650
H            0.61280404008592        2.05688613229719       -0.26260885080678
H            0.81818245429216        0.31135022928184        0.08583714989153
H            1.19388722744789        0.94313357398034       -1.54098575533371
H            5.12178153700246       -1.60962027869717       -0.66938421797106
H            7.50048617649900       -1.53215729403518       -0.01508744065162
H            9.01512806543048        2.44687602310906        2.00627706291734
H           11.47795894322083        1.88355758355292        2.59384812638276
H           16.38781089791635       -2.79910542512925        3.02007720263653
H           18.49919266300706       -2.55689630225415        4.28492575853024
H           21.92275675447823       -3.50172691846496        6.54506069481748
H           23.93137329039292       -4.32134425672379        7.96693253704688
H           25.28648014101879       -0.40318426261707       10.20713464545647
H           27.12719495752691       -0.63660429851439       11.83519998386709
H           30.32262726141972       -5.07703597713804       13.83719048688530
H           29.49474505768315       -3.69458286901461       14.62093804564602
H           30.71163303859339       -3.39703647922101       13.34905615633840
H           27.33743643074823       -4.78838480089585       11.01907538538834
H           25.50905513949496       -4.57929473777726        9.39198119165950
H           17.52460456258040        1.49132533787641        5.13554980684443
H           15.40605383337227        1.24459830566864        3.88416934611620
H            6.95097246874889        2.43946718813382        1.42690506940019
H            4.58596041213878        2.33872383288428        0.77021396940046
