38
 energy: -7.382194239939 gnorm: 0.000901748149 xtb: 6.5.0 (97a52f5)
C            1.19339244446171       -0.66227815248772        0.10029836749529
O            2.53467616205640       -0.50578730886369        0.43330659582802
C            3.31646691812394       -1.02740344734858       -0.56107289603431
O            2.87165729714425       -1.54143792373329       -1.57068690841421
C            4.78002108853179       -0.94262481273293       -0.36215404142036
C            5.64450265381864       -1.43082620776454       -1.33247343583840
C            7.00396080945248       -1.35914489318489       -1.15484621129425
C            7.54172419321133       -0.79563833744565        0.00369064766869
C            8.97008527623845       -0.71420200689396        0.21017088971949
N            9.50560610625121       -0.21712042237486        1.28871416877177
C           10.88513132687988       -0.25170044014664        1.24499104884823
C           11.74582442272650        0.20808816557130        2.25282363560059
C           13.09946493347100        0.11835290435533        2.08069971975646
C           13.66430365563436       -0.42623949387953        0.90688977286123
N           15.06077287007542       -0.50448116280095        0.74772102184956
C           15.97496346220869       -0.16475852316200        1.83577198755283
C           15.66342786372139       -0.93742969866408       -0.51089881859320
C           12.80666320943095       -0.88275282886135       -0.09060092668316
C           11.43797061976509       -0.79643684153127        0.07881004436591
S           10.15148643334032       -1.28133486296666       -0.98041695086330
C            6.66601987876263       -0.30728678033767        0.97383350489745
C            5.30692931697200       -0.37967516062133        0.79243043707840
H            0.57396006857012       -0.21075488523707        0.87779824302265
H            0.97255149408423       -1.72874173409324        0.01546342111474
H            1.00747512043499       -0.17390218224138       -0.85905559396950
H            5.22369267882039       -1.86635175096436       -2.22282736292255
H            7.67143112556604       -1.73864768551212       -1.90805937425486
H           11.32224898994462        0.62689205664689        3.14806101703105
H           13.75285914758251        0.47826065526972        2.85467268072532
H           15.71549667438361       -0.72820382238153        2.72958147657303
H           15.91618800297945        0.89938375422992        2.05440084502807
H           17.00247758409750       -0.40466670021255        1.57227092279980
H           15.23294913417063       -0.38284950006682       -1.34206468367080
H           15.48741833595860       -2.00018138809348       -0.66148326764702
H           16.73655984842472       -0.76171435452046       -0.51120409698336
H           13.19508769755235       -1.31446788969093       -0.99341132781395
H            7.07740113357830        0.12778301339945        1.86790174074305
H            4.62964202157436       -0.00338935066193        1.53962370706965
