24
 energy: -4.469273661685 gnorm: 0.000983120008 xtb: 6.5.0 (97a52f5)
C            1.11818067548306        0.04393183503805       -0.54287210204027
O            2.49176243454878        0.17747357784362       -0.39001823156725
C            3.05181505884070       -1.05386544218081       -0.20667966056349
O            2.41895681404121       -2.09010957417526       -0.25855457068377
C            4.52276728642725       -1.10792558968328        0.01530159592803
C            5.25037660017306       -2.07531352590727       -0.65830566036453
C            6.61951701489965       -2.14142921937253       -0.54077529113806
C            7.28507214787166       -1.23435697816310        0.25568158344700
C            6.57615486843537       -0.27871852304769        0.94624544736981
C            5.19591759001596       -0.20800236548010        0.85239342719139
C            4.48765038627427        0.81361771793858        1.67055719854230
O            4.98657698990367        1.91318438588277        1.81131932363022
O            3.31989429953207        0.43813677114504        2.26935811046417
C            2.78481491970809        1.51692115463742        2.96087052229519
H            0.67653775240781        1.03434186579803       -0.67430269905643
H            0.71430483773928       -0.43693933750065        0.35220627284919
H            0.91903237712411       -0.58099384952829       -1.41735139869117
H            4.71846962591399       -2.77575946849149       -1.28040975294648
H            7.17107518364927       -2.89629652892012       -1.07655235642917
H            8.35840383233451       -1.27642466363900        0.34125539607488
H            7.08361803387356        0.43311829000032        1.57586076417054
H            1.84334781034743        1.21209215951081        3.42432778984951
H            2.61231118528532        2.33249337962739        2.25298163961200
H            3.50016227516959        1.83662392866787        3.72356265205606
