19
 energy: -3.564280207574 gnorm: 0.000881589510 xtb: 6.5.0 (97a52f5)
C            1.00644338342164        0.10656488961444       -0.17792460350504
O            2.37488036854536       -0.13312498601508       -0.18610347412250
C            3.03223602320419        0.95048157699016       -0.69274762402630
O            2.45565976155105        1.96715608223776       -1.03617425223673
C            4.50720886320715        0.90026951624252       -0.80064701954989
C            5.19181428352485        2.09801077717587       -0.92943623332728
C            6.56197906196207        2.12963388419283       -1.02658111905737
C            7.28030586389078        0.94931106173025       -0.99948905851086
C            6.62842960750400       -0.25158165964651       -0.88444550705883
C            5.23276798887027       -0.31164867402751       -0.78934119772368
O            4.59798610274203       -1.52502794774213       -0.70477958637144
H            0.49801839987181       -0.74831013357610        0.27343519938204
H            0.66935100626874        0.24821963222055       -1.20792009780697
H            0.81041000799571        1.01309815160910        0.40069413364529
H            4.61845069902203        3.00978141118362       -0.95419764068908
H            7.07482806642299        3.07223149679447       -1.12355933988693
H            8.35502383128927        0.97346088515553       -1.07384474495651
H            7.18910472706977       -1.16915169817315       -0.87211018753008
H            5.25102195363628       -2.25821426596647       -0.70842764666785
