11
 energy: -1.686355586257 gnorm: 0.000535193420 xtb: 6.5.0 (97a52f5)
C            0.95728290947383       -0.02389293550503        0.02097973050130
O            2.36185952045784       -0.07797539769052        0.01746327441438
C            3.01500575242246        1.13004107129292        0.09603353207077
C            2.28007558939594        2.43073252133099        0.18062952534627
O            4.22639637058664        1.20653013288750        0.10100975651735
H            0.58684656459453       -1.04807435632460       -0.04563354944497
H            0.60272114987523        0.53522877939366       -0.84618007718784
H            0.60271969785771        0.41819284061910        0.95325778214631
H            1.19885814907571        2.32106370275003        0.17349793663190
H            2.56122628200777        3.06527833574902       -0.65846337583754
H            2.56122801425235        2.95124530549693        1.09484546484207
