10
 energy: -1.545920044914 gnorm: 0.000638526895 xtb: 6.5.0 (97a52f5)
C            1.05746248293961       -0.05694614276319       -0.05631985647159
C            2.37421838930976       -0.09277594786347       -0.07290722784880
C            3.15700054584265       -0.24921273573087       -1.32600997311111
O            4.55870973019294       -0.17246340495413       -1.14081808175007
H            0.50352347399783        0.04664659572836        0.85628251682423
H            0.49235239593768       -0.13230779304021       -0.96402205133216
H            2.92732693660658       -0.02933563414356        0.84916677898328
H            2.86058236081039        0.50860970125655       -2.06253002050985
H            2.94852842599178       -1.22553951598093       -1.77955473854019
H            4.79388525837077        0.66749487749145       -0.68625734624374
