16
 energy: -2.237782129513 gnorm: 0.000777381146 xtb: 6.5.0 (97a52f5)
C            0.94662641601085        0.07185842655204       -0.08119577433083
O            2.35384787470117        0.04806867364546       -0.07700547592708
C            2.87792043037765       -1.25518425559326        0.15245955560953
C            4.39959927688325       -1.26277691302803        0.15379797825204
O            4.92372733642611       -2.56601155999151        0.38326062623700
C            6.33094709952577       -2.58981720809314        0.38745255471795
H            0.61493640503891        1.09520676432202       -0.26137997009161
H            0.56702613981715       -0.26392742746733        0.88493736709004
H            0.56702785352852       -0.57372357000785       -0.87453812286710
H            2.49606553100658       -1.92479082710095       -0.62560140386536
H            2.49606387731142       -1.61877353766260        1.11243531256262
H            4.78146078498059       -0.59319120654357        0.93187547145908
H            4.78146306139581       -0.89921356481295       -0.80618695166339
H            6.66262944359135       -3.61316778060684        0.56763595981251
H            6.71053413914572       -1.94423056964190        1.18079439807345
H            6.71053433025914       -2.25402544396960       -0.57868152506886
