30
 energy: -4.294980375423 gnorm: 0.000547966910 xtb: 6.5.0 (97a52f5)
C            0.97678394313870       -0.01648543167668        0.06598504597912
O            2.38424592058291       -0.04179713279630        0.05418317987065
C            2.90309327996386       -1.24283851786116       -0.50578744653791
C            4.42478491720287       -1.25684671291059       -0.51231545949555
O            4.93728827886452       -2.45978832308668       -1.07317047631264
C            6.35922469667875       -2.49341711963977       -1.08885108611601
C            6.88690612653940       -3.78704119848681       -1.69198984138497
O            8.30884076911330       -3.82069924612190       -1.70767998272507
C            8.82131971553061       -5.02364950498687       -2.26854088832725
C           10.34301187345443       -5.03765788425250       -2.27507403110293
O           10.86188516221398       -6.23868776733930       -2.83504146636613
C           12.26934922547020       -6.26399368631404       -2.84683547304439
H            0.64778592941725        0.92577502319596        0.50529982176163
H            0.59617213534189       -0.84446698624682        0.66517999431261
H            0.59617118369093       -0.08981420726665       -0.95343154037313
H            2.51951702056743       -1.34384496929346       -1.52655473473115
H            2.51951386955194       -2.08965097332348        0.07306868578328
H            4.80929327451588       -1.15686831757599        0.50813761804019
H            4.80929622389258       -0.41093708434005       -1.09175884771244
H            6.72139346653579       -2.37909682161668       -0.06176611138597
H            6.72139208736818       -1.63320468518004       -1.66157127735405
H            6.52475299051045       -3.90139039234542       -2.71907631493405
H            6.52475021258170       -4.64727328904531       -1.11929353285080
H            8.43683913493714       -5.12363922311216       -3.28900385174590
H            8.43684089754136       -5.86957486617514       -1.68909780086527
H           10.72661330817695       -4.93665413660237       -1.25431763011905
H           10.72661153972552       -4.19085444072939       -2.85392693463133
H           12.59833826537223       -7.20625548807227       -3.28615329808131
H           12.64995963766857       -6.19068562236648       -1.82741689390990
H           12.64996491385064       -5.43602099443165       -3.44603942564029
