13
 energy: -1.795872509624 gnorm: 0.000896076439 xtb: 6.5.0 (97a52f5)
C            0.93502074339910       -0.10034053499069       -0.00654506283111
O            2.34193435416955       -0.10346502767796       -0.00475347765543
C            2.88873521983904        1.03318883777669       -0.65513011781601
O            4.30566963629657        1.10176863111290       -0.69437560861542
C            4.77125651156293        2.25411441395799       -1.35372366830392
H            0.58774310829536       -0.99795055164738        0.50705630146581
H            0.56517754346239       -0.10698186336144       -1.03300076252787
H            0.56517310467839        0.78122155297438        0.51928927463487
H            2.52006935981920        1.92701529848934       -0.14277110631082
H            2.52006423533046        1.04438971040767       -1.68532820732647
H            5.86203103159239        2.23909489737289       -1.34513378009079
H            4.41934046315666        3.14668127699934       -0.83419353221262
H            4.41933468839796        2.25850335858626       -2.38647025241022
