17
 energy: -2.312439776765 gnorm: 0.000772537141 xtb: 6.5.0 (97a52f5)
C            1.21623907317564       -0.40983135711021       -0.73979072009544
O            2.43602457138963       -0.15708732065149       -0.11950690122071
P            3.23484763952844       -1.54841315658210        0.09466774002804
O            4.70085648440611       -1.35809133724716        0.46698689670888
O            2.45568767764132       -2.30337291964906        1.29750198958875
C            2.62796826664139       -1.58018737472671        2.47533965473720
O            3.11306356662340       -2.45671311575149       -1.24128648271949
C            3.78118688555234       -3.65861896407302       -1.03090573869342
H            0.68874215886578        0.54282279776833       -0.87972397432701
H            0.61681409186426       -1.07931271721951       -0.10747197065693
H            1.40044443685921       -0.87932086741757       -1.71652526812635
H            2.09670895897296       -2.09183135626478        3.28864010015104
H            2.22142281201595       -0.56757661140308        2.34255267970861
H            3.70244863201862       -1.52639833817983        2.70400951215901
H            3.71768593708830       -4.26301855360793       -1.94562532851232
H            3.31165887278568       -4.19412947784938       -0.19360097343903
H            4.83432993457134       -3.44180933003545       -0.79815121529132
