38
 energy: -8.026528459989 gnorm: 0.000863354457 xtb: 6.5.0 (97a52f5)
C            1.30598678580799        0.11389662296277        0.26349330581102
O            2.48985453659718        0.03105862338427       -0.50756048384222
C            3.09820212266873       -1.24593014871050       -0.47014966454986
C            2.72146854945234       -2.24316795713643       -1.38708445325301
C            1.75301886755118       -1.94044532726861       -2.39054242997229
N            1.30431566235243       -2.79825175246248       -3.23754792041609
N            0.41204929801336       -2.44677226028829       -4.17118764991670
C           -0.14972298042125       -3.34215545359813       -5.08922561631731
C            0.18795881252748       -4.69003465149662       -5.03616892390046
C           -0.35409150606983       -5.58291949659324       -5.92862248765807
C           -1.25209225668587       -5.15315569054580       -6.90128240503741
C           -1.80700107555791       -6.06221954013181       -7.81233135774287
N           -2.26828715333901       -6.81787929217648       -8.56512592274225
C           -1.58877206449751       -3.80325353683966       -6.95433297029027
C           -1.04768522845366       -2.90928916254191       -6.06191203935511
C            3.30481013857194       -3.52010262949108       -1.31007267839886
C            4.24260604552551       -3.81616989196714       -0.36827154386472
C            4.66281747461726       -2.83980287751800        0.56279883170975
C            5.63709224531038       -3.11123452786304        1.54526964425313
C            6.02423922767117       -2.14431946848014        2.42663941132615
C            5.46111979716316       -0.86590950356974        2.36847810299735
C            4.51579766560148       -0.57169267176719        1.43019176898832
C            4.09147156972644       -1.54529997792443        0.51005129247210
H            0.85880465129542        1.09793379538877        0.12021389368710
H            1.54638271031468       -0.02668583599334        1.31758086043201
H            0.60294699442574       -0.65560013798556       -0.05654767590131
H            1.38271419709037       -0.93301909380761       -2.43846817575842
H            0.14615004110993       -1.46408603420007       -4.21969073876704
H            0.88206469184716       -5.01583572305453       -4.28178391898577
H           -0.09164313790730       -6.62636474891342       -5.88531074840094
H           -2.28292104877135       -3.46979623656677       -7.70688086609586
H           -1.31079238684529       -1.86687598399908       -6.10725870925282
H            2.99364425849791       -4.26465392308633       -2.02179978716439
H            4.67904699189365       -4.79878678839827       -0.32641946804684
H            6.07461520428413       -4.09357200298729        1.58865823804895
H            6.77055450078437       -2.36389989446615        3.17218782797248
H            5.77869806339254       -0.11000526383766        3.06754435832866
H            4.08639773445549        0.41329844393533        1.37135109960852
