105
 energy: -18.376420618918 gnorm: 0.000549148959 xtb: 6.5.0 (97a52f5)
C            0.72037617650101       -0.06576788326185        1.29047462716798
O            1.71194988128785       -0.32913547017451        0.31189051392086
C            2.72695403900016       -1.20027251615708        0.76805242961891
C            2.48567977744233       -2.59558146382319        0.66985614353270
C            1.31253900032973       -3.08087089067934        0.06262613836664
C            1.07017952598094       -4.42086129833353       -0.02565169894346
C            1.99198972539248       -5.33880727665703        0.48967238466512
C            3.14243090725271       -4.90026612458283        1.07802521461967
C            3.42455151973129       -3.52553084828088        1.18042462132031
C            4.62956494283390       -3.07647172737161        1.78183918950123
O            5.56912909069394       -4.05861157774796        2.17039838390283
C            6.42763036163700       -4.45489098804589        1.11405483198811
C            4.87707399225984       -1.67442005806704        1.92097200106213
C            6.02875066373760       -1.20820807569057        2.59423990330121
C            6.91564744005629       -2.06647186556405        3.25972838404715
C            7.67796320103335       -2.77099194294239        3.89517053990831
Si           8.61965140306358       -3.85442924601186        4.95610363024531
C            8.24445750131130       -5.63573506516037        4.38364927562006
C            9.10044765867551       -6.70901682391522        5.03042385083467
C            6.75924201214140       -5.92580637215921        4.51041635835194
C           10.45148925987112       -3.39772774246610        4.70025140882298
C           11.36150511764126       -3.87114155543664        5.81910676028876
C           10.92193211666264       -3.85442980296863        3.33094951596275
C            8.10385287021337       -3.50329872066015        6.76063771389646
C            6.65273751775106       -3.05840684796635        6.82917083452073
C            8.39291191469692       -4.65258350669967        7.70825465708679
C            6.30870659707328        0.17811206203714        2.65411762487890
C            7.46216351631484        0.66056375728044        3.30665086138668
C            7.73392709273374        2.00386320669898        3.33880818637303
S            9.08662152760160        2.84991263263503        4.06867428942728
C            8.48140045366659        4.40336420821378        3.54698627084731
C            7.32812393498842        4.29650461344069        2.86436150772840
C            6.86882394526690        2.93280209173948        2.72549675532830
C            5.72348524060052        2.48639517463696        2.08435189190676
C            5.41579465400681        1.11551604122880        2.03673151279352
C            4.23756896689696        0.65161876764509        1.39649499355893
C            3.42633862563784        1.61670914336493        0.78484681137681
C            2.78855208895857        2.48436628666351        0.21754382582241
Si           1.99850944666562        3.67406119806842       -0.85246877870048
C            3.19783071771916        3.89468172609749       -2.32140823463098
C            2.62600050383620        4.65083153658764       -3.50621892882524
C            4.51140189058857        4.48502830619178       -1.83926113228543
C            0.35155188939765        2.87429800628675       -1.37770135931586
C           -0.61214068040350        3.83145599202523       -2.05482683891918
C            0.61602105269319        1.62439481357302       -2.19794338119330
C            1.65929895808819        5.27991399137789        0.12239147425039
C            2.70203143100495        5.48017655409155        1.20863139655454
C            1.51163730783813        6.50440503888553       -0.76196520744977
C            3.94374006944541       -0.72768040967207        1.35747874715607
H            1.15035217548893        0.54690718018460        2.08317168704685
H            0.35641956924719       -1.00232342489461        1.71337496053060
H           -0.10924174888056        0.46848673038007        0.82816675157918
H            0.61237722345650       -2.37092390700883       -0.34207440263996
H            0.16709865318353       -4.77583035974062       -0.49461930503578
H            1.79098806974029       -6.39532497373933        0.41927603927699
H            3.85084712101537       -5.60118137309952        1.48424975794337
H            7.11805202451713       -3.64236843615271        0.88683047033244
H            5.84028037545644       -4.69014247655701        0.22625658081413
H            6.99153321373549       -5.33652588628456        1.41742614573272
H            8.50647479982534       -5.56381991125127        3.31771937698240
H            8.89123183507779       -6.79001953455727        6.09621724245542
H           10.16473625741445       -6.50297281961318        4.91660408569479
H            8.90608417518519       -7.68823967871157        4.58891050174927
H            6.46771786408255       -6.00998753111746        5.55738822153109
H            6.49087060777455       -6.86340864105855        4.02010285758971
H            6.15895633844211       -5.13116917797033        4.06342109873463
H           10.40087786638700       -2.29849021765334        4.71805076187433
H           11.38041030548702       -4.95901654432148        5.87610885034456
H           11.03616447773065       -3.49513662277208        6.79027443340801
H           12.38856930119348       -3.53614362580916        5.66276743153110
H           10.97584660354631       -4.94251875515410        3.28169110170606
H           11.91599048422661       -3.46694213110985        3.09910801828813
H           10.24001038906135       -3.52333499017670        2.54510405018801
H            8.75412135209250       -2.65176269402209        7.01016262425528
H            5.98547705194666       -3.86573752833752        6.52634722128102
H            6.46058554878712       -2.21173029146296        6.16769629788259
H            6.37248873102711       -2.76227176284000        7.84170695475661
H            7.72249918815583       -5.49023345748969        7.51559922529426
H            8.24630303140098       -4.35701123940010        8.74885629983183
H            9.41665766741833       -5.01471823629491        7.60595082470557
H            8.14176966546677       -0.02421714219785        3.77912333228098
H            8.98807359788655        5.32594532197662        3.75846586335481
H            6.78821317775852        5.13572606883675        2.45509460931511
H            5.06807079999822        3.20163833041271        1.62419435779515
H            3.36292964487266        2.84577138272347       -2.61067925763497
H            2.37374216717532        5.67519412178517       -3.23473518898434
H            1.72364248619307        4.17705397230351       -3.89249230001730
H            3.34505839002469        4.70121835975688       -4.32592346565475
H            4.38524198364909        5.52769973721548       -1.54698936078254
H            5.27404135382147        4.45537592216001       -2.61997577005392
H            4.89802728936221        3.94442800304742       -0.97324062664053
H           -0.06121173891965        2.58453971131317       -0.39999907141710
H           -0.20775283066304        4.19715232266396       -2.99766406251712
H           -0.82463835546567        4.69888211947886       -1.42820414556268
H           -1.56312432425274        3.34393593028516       -2.27730100326843
H            1.05747531586262        1.87890160196026       -3.16198640261479
H           -0.30469295195074        1.07161478878428       -2.39324665174605
H            1.30735043993845        0.95195157764812       -1.68558411576169
H            0.69045650730239        5.04867250088375        0.58957919472112
H            3.68640199352912        5.65485490216760        0.77352654818864
H            2.78083013819060        4.60388932276000        1.85470658892530
H            2.46384857741922        6.33956043305540        1.83807422261661
H            2.46807964604775        6.77934474493665       -1.20652979889291
H            1.16219542155944        7.36723389654667       -0.19168582154893
H            0.80494420471040        6.33458533929496       -1.57520374147028
