68
 energy: -14.767475517482 gnorm: 0.000599901435 xtb: 6.5.0 (97a52f5)
C            2.90786015994637        0.32234098415287       -5.98455867793862
O            3.24342447093031       -0.98127516208430       -5.53585981677765
C            3.73490886644460       -1.02172865497290       -4.21728488936709
C            5.12332610525221       -0.75732976884969       -4.02314646190724
C            5.97244611531898       -0.54738723086685       -5.12091769655447
C            7.29812566893141       -0.26949525447939       -4.94115187535531
C            7.82918351029884       -0.18887851308043       -3.65290799994063
C            7.02889921249453       -0.40154757144578       -2.56602201080432
C            5.66647556193742       -0.70212397049232       -2.71997927031709
C            4.84202238277357       -0.94783384358361       -1.58175872618604
O            5.46427428378459       -0.95278867670450       -0.31865563182405
C            6.05661604921266       -2.19594981445920        0.02430250276199
C            3.44471808596796       -1.20908441980357       -1.75632779553196
C            2.60412350413885       -1.40146802690359       -0.63559564185172
C            3.06015650971779       -1.30326764262646        0.67238351745225
C            3.43443198197252       -1.22283392849203        1.83784694025090
C            3.87677803480084       -1.11528429790229        3.16426398255243
C            4.88336495823665       -0.21508113775687        3.50187917332485
C            5.32456591161451       -0.10917270855995        4.80318515150555
C            4.77053573335427       -0.90244623559574        5.78784787917268
C            3.77365619587787       -1.80252187400381        5.46859873897298
C            3.32917556394804       -1.90890773232732        4.16831439345405
C            1.22361510724677       -1.70076386774177       -0.81679878733673
C            0.37648152455593       -1.89629571193882        0.27400579325167
C           -0.97784830005837       -2.19785713670607        0.11629303605448
C           -1.83961726718046       -2.39479377165893        1.22269299336061
C           -3.15577653781608       -2.68771580748131        1.03339035028243
C           -3.68267687185252       -2.80034728678318       -0.26257991910959
C           -2.88639912612072       -2.61830833246114       -1.35196274324989
C           -1.51232568003871       -2.31185883667902       -1.19834072102274
C           -0.66788567007200       -2.11608011250627       -2.29328334804990
C            0.68464823353802       -1.81090263231060       -2.14048606179777
C            1.52790599805703       -1.60302306888366       -3.26944678305285
C            0.94553315791706       -1.74049727464588       -4.52302421669629
C            0.39174338435888       -1.87128033580596       -5.60994310898571
C           -0.23471695466415       -2.00613511457654       -6.85780164188183
C           -0.31643537112396       -3.24677791803530       -7.48385084738928
C           -0.92992237375168       -3.37625360650093       -8.71122974912558
C           -1.47122856787876       -2.26985283891076       -9.33433558687968
C           -1.39750880505001       -1.03224577061635       -8.72747628521845
C           -0.78478261408021       -0.90018553489147       -7.50001259061162
C            2.89336084940984       -1.28228063917326       -3.08845675452637
H            3.77939029924624        0.97410491405060       -5.92404965141658
H            2.10912758133614        0.72404091916893       -5.36056096994987
H            2.56587902969779        0.26351988085335       -7.01798028872155
H            5.56016282608888       -0.62289420014893       -6.11198840999968
H            7.93672117171929       -0.11033642549593       -5.79441988577325
H            8.87343819204330        0.04009459266270       -3.51765004856129
H            7.43033593640460       -0.32893488934926       -1.57030866448963
H            5.28077787099643       -2.95928357213585        0.08817735240175
H            6.54968257500054       -2.09874669126213        0.99165255413525
H            6.78747367106655       -2.48302637231715       -0.73164412069954
H            5.31458008743056        0.39551749438095        2.72675878581839
H            6.10315980011795        0.59325256493375        5.05197050239865
H            5.11688228954381       -0.82007854472892        6.80511046438458
H            3.34303431206110       -2.42383753295081        6.23677867819107
H            2.55352817960010       -2.61086053302919        3.91321148144596
H            0.77330133850532       -1.81403423955566        1.26880014028828
H           -1.43769933711781       -2.30860218891611        2.21747362396271
H           -3.80154158154862       -2.83466726830946        1.88353831718941
H           -4.72691803012002       -3.03269029798389       -0.39270064351736
H           -3.29264343256873       -2.70476238349052       -2.34495039915250
H           -1.07880202508679       -2.20122795706734       -3.28207692192178
H            0.11064592730583       -4.10567116452144       -6.99471581324453
H           -0.98597619970848       -4.34246327407690       -9.18538424281371
H           -1.95023854579392       -2.37207649101288      -10.29437291225219
H           -1.81895857385682       -0.16795974357222       -9.21421876436283
H           -0.72291634013082        0.06313448142852       -7.02295897758583
