65
 energy: -14.056809756246 gnorm: 0.000658970818 xtb: 6.5.0 (97a52f5)
C            1.17580646265052        0.61482788186049       -0.42823663290100
O            2.27106408489561       -0.15021049810902        0.04626502063548
C            3.08650842212295        0.54943355729876        0.96111967606184
C            2.72448321046985        0.49388197629230        2.33631121927302
C            1.67689696874907       -0.33660606493314        2.76805505664339
C            1.32441970188257       -0.39366271446436        4.08577504186770
C            2.00695429600048        0.37854251514405        5.02937697404083
C            3.02694491061191        1.19798574552784        4.63887120184349
C            3.40958778212736        1.28253621274926        3.28949773419114
C            4.46316683876856        2.15006242301666        2.88326770899465
O            5.01769587783236        3.00293810934935        3.86099617380038
C            4.26712543919863        4.18762202958872        4.07095547311854
C            4.90385841454543        2.14634529366899        1.52280195815062
C            6.00393953893973        2.94047765219725        1.11755473727993
C            6.71940697710179        3.73643132135127        2.00227752849816
C            7.36166060242928        4.44630283577336        2.76923181035591
C            8.05379092071702        5.24231855052368        3.69269993994367
C            8.86068894970455        6.29711204397547        3.27563875218753
C            9.52745642218050        7.07666849242911        4.19608063350573
C            9.40032911035137        6.81627187486088        5.54591015943230
C            8.60342991038641        5.77385397332098        5.97496840228200
C            7.93525240468943        4.99336549151357        5.05693319175867
C            6.43141264413516        2.93606095185716       -0.23690389089508
C            7.51766738272423        3.72547317585987       -0.65716915743650
C            7.92899949070066        3.70567993241124       -1.96612518372457
S            9.23727901784275        4.58191284964844       -2.73579784262828
C            8.89569166947819        3.86346421009228       -4.28879868982607
C            7.85635169764051        3.01290585392007       -4.23525300502069
C            7.27743749446956        2.89748845754806       -2.91640051805981
C            6.20496020144966        2.10698400164861       -2.52676994055033
C            5.76121943231146        2.10862138609590       -1.19597867352968
C            4.66567025005738        1.29716025794823       -0.78704476531752
C            4.09913260027954        0.46820466917733       -1.74487377073440
C            3.61717393974601       -0.28000156940925       -2.58954872771406
C            3.02841453855038       -1.17369255565717       -3.49437453580460
C            2.11752022815406       -2.12303848237028       -3.03986229323057
C            1.53118942741833       -3.01104442263374       -3.91499779419988
C            1.84516636783171       -2.96568642941461       -5.25859897871400
C            2.74625669085291       -2.02948203088872       -5.72525491138775
C            3.33372757575261       -1.13953094180932       -4.85207280417177
C            4.21780443535507        1.32617203153966        0.55429411493434
H            0.59585813899145        0.01335976120258       -1.12809601726051
H            1.54909479677092        1.50361932234789       -0.93752374206062
H            0.54336814796528        0.91269515266664        0.40821397020293
H            1.16596803419759       -0.93974614270637        2.03786200578448
H            0.52245727008529       -1.04002719108872        4.40217735817462
H            1.72848611412290        0.32213244029031        6.06877996319977
H            3.56702696157142        1.78183401863485        5.36364656645952
H            4.28816189925356        4.79167637801816        3.16355074388835
H            4.71262347013124        4.75062862177086        4.89099448961940
H            3.23519053244007        3.93843824215971        4.31791888287052
H            8.95409203975801        6.49689077859694        2.22178012354359
H           10.14832292412201        7.89168645687054        3.86169963005153
H            9.92153717401761        7.42752491795110        6.26436111875827
H            8.50320646969164        5.57139485079251        7.02860701628285
H            7.30726673724849        4.18083633016450        5.38074634144103
H            8.03668554162097        4.34955526644661        0.04619089980107
H            9.46167127404552        4.08883977441285       -5.17259796603917
H            7.47970235041513        2.46500342505434       -5.08431753612248
H            5.71443598928231        1.49079488959514       -3.25667890865888
H            1.88059044418940       -2.14898800867053       -1.98975473821964
H            0.82788936954374       -3.74155797900389       -3.55017326280802
H            1.38736587797681       -3.66157122497103       -5.94246432427763
H            2.98991943154287       -1.99399196449256       -6.77451210249861
H            4.03473667795320       -0.40520816690277       -5.21070090471484
