61
 energy: -12.588759643144 gnorm: 0.000908810330 xtb: 6.5.0 (97a52f5)
C            1.99958403283582       -0.71041318629410       -1.70934883151586
O            2.05014817333713        0.69418119912520       -1.62077085559125
C            3.05671349469165        1.30966688017996       -2.37319067281676
C            3.98600727185681        0.57294652825697       -3.09606624170994
C            4.96897352627774        1.17706578262870       -3.85654150238412
C            5.93863076181328        0.33265940578641       -4.57830999925396
O            5.91847429291174       -0.87642445163080       -4.44448481194243
C            6.96150627263111        0.98360641786938       -5.44387811080790
C            8.28638335965349        0.99347142016101       -5.04198071905888
C            8.67387896747419        0.31424667296295       -3.77510342315708
C            9.25974686357692        1.66964054965291       -5.82364819729990
C           10.62259348728356        1.75280988657203       -5.41290823464787
C           11.54791893264498        2.39682239301816       -6.15828745889857
C           11.19741898295522        3.02153071665643       -7.38842145074309
C           12.15012249167832        3.68823885826144       -8.16578876516503
C           11.79053377587694        4.28346645143304       -9.34737677592875
C           10.48063133417876        4.23396568342570       -9.78995292861663
C            9.49114026562212        3.58496465091368       -9.05910356226868
C            8.10237119225631        3.51888545140109       -9.50720056899823
C            7.67382367588013        4.08800202371564      -10.70131999554506
C            6.35155581524708        4.01246827931923      -11.10377190654730
C            5.42205987646031        3.36999074761855      -10.32836469371339
C            5.79558111904311        2.77752907476342       -9.11622021266060
C            4.85034371513121        2.10163838683136       -8.29546748215706
C            5.22451144483342        1.53184261222568       -7.12713245068705
C            6.56917339120341        1.58611677437386       -6.67446382508737
C            7.53058355196763        2.23838585073278       -7.46555983781491
C            7.14595577867599        2.84879064899862       -8.69971322644695
C            8.88138156463973        2.28944302002740       -7.03467590299858
C            9.85521468212592        2.96738986752003       -7.83237391570143
C            5.02640791417897        2.55997416697370       -3.89838464648092
C            4.13268891123333        3.35255738150681       -3.19398026758724
O            4.32265273810672        4.73629676225279       -3.33377960397019
C            3.42716998037105        5.54850420858054       -2.62809404354558
C            3.12864484383960        2.72951848896553       -2.40481502079322
O            2.25617055948212        3.55871413012752       -1.70183363658107
C            1.43978616097839        2.93373841870217       -0.74739082653425
H            2.91492764042823       -1.14202727280286       -1.30316662726491
H            1.85820794854062       -1.01209836996648       -2.74788761089565
H            1.15167475868892       -1.06371557391430       -1.12156743096945
H            3.96979002457019       -0.49991425078834       -3.07722062476105
H            7.87991317437834       -0.34646432582247       -3.42531364503451
H            8.88163117637424        1.04126575428302       -2.98903342958332
H            9.55982617087597       -0.30521732366094       -3.91679956107838
H           10.91616863212507        1.30148305003968       -4.48201632486826
H           12.57070475482669        2.44819283733004       -5.82741059157738
H           13.17037728306520        3.72759807916468       -7.82536620671490
H           12.53426941253306        4.79466216907655       -9.93636582646446
H           10.23189642621504        4.71240773401637      -10.71918507905932
H            8.37709816641160        4.59803650144618      -11.33341899410249
H            6.05125430990488        4.46281402568663      -12.03569800492348
H            4.39501976053942        3.31312665908789      -10.64511921637372
H            3.82604948983885        2.04835526229023       -8.62124853659165
H            4.49815059972555        1.01771372260559       -6.52232920258320
H            5.78134985570613        3.04753714412348       -4.48601226804380
H            3.66502527660580        6.59513627053531       -2.82035191517477
H            3.51979761691169        5.33850452489328       -1.56162522886415
H            2.41092934735580        5.33318811929447       -2.96137088972537
H            0.91165893318451        3.69533874959973       -0.17288864635574
H            2.05935361858236        2.33243356755365       -0.08063089228593
H            0.72017241963249        2.29485079232488       -1.26101864104767
