53
 energy: -10.296813400816 gnorm: 0.000169454857 xtb: 6.5.0 (97a52f5)
C            1.89188546025781       -0.76218978798998        2.04533155318837
O            1.66480063908268       -1.29706927661112        0.76160756042561
C            2.79735287579547       -1.80558331933351        0.11000060806242
C            4.01477916900274       -1.95518117218150        0.76007744302025
C            5.14350446188910       -2.45763170889425        0.11884417884610
C            6.41411013129835       -2.58997970909191        0.81659388757254
C            6.63434249216454       -2.43940762436559        2.14346800733212
C            8.03310086625754       -2.62913991794376        2.45887116223049
C            8.57819090072859       -2.48752200908582        3.82583902275822
C            8.14612221166751       -3.32644669007983        4.85200773106386
C            8.66019203291991       -3.20263177474204        6.12351021185101
C            9.60860683155689       -2.23687937252643        6.39611739690590
C           10.04093926111599       -1.39131856812486        5.39380359748015
C            9.53047539719505       -1.51210340528767        4.12052860157938
C            8.72747773857600       -2.91389090636141        1.30581710677571
C           10.14189430560102       -3.22743650127891        1.15120667266779
C           10.94068091619989       -3.60701336143524        2.23453943476137
C           12.27266074188937       -3.90681661723731        2.06568944894428
C           12.84413981294856       -3.84196379176884        0.81057441235021
C           12.07378293798839       -3.48171102949485       -0.27717211767410
C           10.74058983172959       -3.18221111253317       -0.11241449761568
C            7.73574905961114       -2.89832703255128        0.17506838782553
C            5.02456315913192       -2.83161904888516       -1.21526936860767
C            3.82866710608752       -2.72847073712839       -1.90845566626645
O            3.85056528061569       -3.16712392709220       -3.24481319480367
C            2.59591860281401       -3.43538267756381       -3.80924010531316
C            2.69079901583473       -2.18892708796069       -1.25377392461154
O            1.51998251998267       -2.05976819331219       -2.00309332771496
C            0.52143147023650       -1.24258181365353       -1.45143165682887
H            2.66990790378943        0.00081991211709        1.99966109712309
H            2.17239297744050       -1.55829614772159        2.73567520513937
H            0.96834281572319       -0.30153864507802        2.39716967631204
H            4.09984540309268       -1.67086145002995        1.78998572842108
H            5.88347896951297       -2.21209828334144        2.87806874976728
H            7.40936302017021       -4.08012973658208        4.63301679635196
H            8.32187636610244       -3.86089191298600        6.90684969925526
H           10.00983542021345       -2.14181278776436        7.39187741159628
H           10.77934542086417       -0.63623424842992        5.60795714024632
H            9.86471962642417       -0.85682696486581        3.33460842875295
H           10.50028814534212       -3.68138385611539        3.21170012543061
H           12.87117867578180       -4.19463738201000        2.91445664294036
H           13.88812818636535       -4.07534381060865        0.67955127767278
H           12.51822091898277       -3.43482217629503       -1.25786140506286
H           10.14712222196756       -2.90140403856292       -0.96490423959709
H            7.71057221033278       -3.87030007964301       -0.33136738558220
H            7.99310675082121       -2.13146591202026       -0.56477733319317
H            5.87490963609495       -3.22928767187176       -1.73641723688793
H            2.73278586120321       -3.96961681236577       -4.74995398034462
H            2.08238032691414       -2.49102561488264       -3.99430000233614
H            2.01057281600628       -4.04556109378239       -3.11981417432819
H           -0.26343115804872       -1.08502464431696       -2.19174455665142
H            0.95589718742698       -0.28385387899005       -1.16526768980265
H            0.10353506731859       -1.73723458935154       -0.57371254144788
