12
 energy: -2.018841448541 gnorm: 0.000426037480 xtb: 6.5.0 (97a52f5)
C            0.93560590273869       -0.08750899878399        0.03575080599465
C            2.25974342986371       -0.07862763219734        0.03168472601129
O            2.99400950252634       -1.14899350957743        0.52125119501409
C            4.37601034010649       -1.15558745695014        0.52426785425953
C            5.19187898691964       -0.01625603678775        0.00316374047969
O            5.00589812637138       -2.09728691934695        0.95498029819586
H            0.35562662720490        0.73179585584132       -0.33898532929809
H            0.41332873511696       -0.93720940849771        0.42439253420713
H            2.77749494764938        0.78039027089237       -0.36122018160395
H            4.60294156832964        0.81254523258611       -0.37590557058237
H            5.83560756331805       -0.36705881992504       -0.80207554943410
H            5.83561426985482        0.36347742274654        0.79516547675628
