21
 energy: -3.707703855313 gnorm: 0.000949361688 xtb: 6.5.0 (97a52f5)
C            1.06836282673396       -0.04357955703102        0.06517432476724
O            2.47144140285636       -0.12998758801826        0.07358583966815
C            3.13917088819073        1.10024974147525        0.06205211454616
C            4.53073405649383        1.06542007465717        0.04396476107093
C            5.28903031399800        2.23121058535026        0.02969979310003
O            6.67075278080389        2.20572752304465        0.01110419797626
C            4.62395344529260        3.45181517980157        0.03458984125110
C            3.23457823832767        3.52976459318480        0.05382627030496
O            2.66709315249421        4.80916360061583        0.05826445008473
C            1.26196279175877        4.83492484717483        0.08637896372109
C            2.50655277507901        2.34186555710696        0.06739991545464
H            0.66202146009236       -1.05563224686159        0.05976626881527
H            0.73470996776057        0.47730873023235       -0.83312012565414
H            0.72371790829847        0.47238408123919        0.96219165337467
H            5.01821915961907        0.10967590605753        0.04041253739121
H            6.99074832187382        1.27803115782952        0.01172418455823
H            5.19792025515283        4.35837540331590        0.02369696945556
H            0.93793856051823        5.87627828113077        0.09028499317619
H            0.90077853956174        4.34744863382371        0.99276997477508
H            0.86463352701373        4.34295360556180       -0.80226769597387
H            1.43650962808015        2.38409189030874        0.08324076813653
