59
 energy: -11.915712159738 gnorm: 0.000637597371 xtb: 6.5.0 (97a52f5)
C            1.19200608498535        0.02222361520390        0.23020914966586
O            2.43180402514300        0.45501777494398       -0.27434941622585
C            3.20842813548590        1.18946430287273        0.62884124043332
C            4.46119117251539        1.61712075575979        0.19939718619559
C            5.31831913117444        2.34631545204560        1.01815578959822
O            6.55401533207612        2.72711791601007        0.48295518291119
C            7.34251477345804        3.52667389400293        1.33076013893006
C            4.88984575700748        2.64749023275433        2.31154989224955
C            3.64321410574899        2.24239625455758        2.77334983323333
C            3.20610918112094        2.57816890829434        4.14763526984963
C            1.93920874799948        3.10729345388393        4.38606274253519
C            1.53608244047236        3.42700521829458        5.66066251919698
C            2.38098837087997        3.22372897010112        6.75337042864273
C            1.95995720844003        3.55312201195953        8.11239604899770
C            0.85815317998752        4.24382800853694        8.48027251471870
C            0.77825853274032        4.35629397552612        9.92471053825428
C           -0.27363738257970        5.12398684787751       10.62333675669760
C           -1.62216406742841        4.84698945407296       10.40784690889633
C           -2.59934489335704        5.56397224447863       11.06269088047491
C           -2.24988146310148        6.57238118914410       11.93869342599315
C           -0.91876497675420        6.86613179768810       12.15675868580183
C            0.06113576755982        6.15186953623464       11.50386977609519
C            1.84034026065164        3.69728755034914       10.49137595469899
C            2.11408392516449        3.46558088233758       11.90734664036358
C            1.11076730018666        3.55493239748730       12.87591905248048
C            1.37981835636806        3.30837954721664       14.20282894862728
C            2.65562540111416        2.95929755318112       14.59767986935950
C            3.66094171242409        2.85339073018756       13.65745129755457
C            3.39517165244080        3.09906560526382       12.32903936655439
C            2.69177144473199        3.17316266210997        9.36760081691672
C            3.64677179998144        2.68628325607149        6.51169679123631
C            4.05189582937117        2.37481387202318        5.23597655679251
C            2.81323463403863        1.51794282392283        1.92626230162458
H            0.68070958728244       -0.54564523429071       -0.54777133279168
H            0.57924520540278        0.88318105600683        0.49980971630841
H            1.34827999020376       -0.62378054127379        1.09498601024649
H            4.77811433369821        1.37503780761294       -0.79693462264182
H            8.25553616032740        3.79843150457827        0.79999967263320
H            7.60838320897774        2.96685556116672        2.22813560616934
H            6.80165302304050        4.43702227919967        1.59214515730619
H            5.52256147993140        3.21229891589766        2.96888057552405
H            1.27902405749115        3.27503708832146        3.55254019958383
H            0.55288503836624        3.83216833532475        5.82235123670703
H            0.13276803032087        4.66375071570220        7.80747296013371
H           -1.88982098254986        4.05804354789997        9.72620117590504
H           -3.63891666135732        5.33698440411333       10.89142964562683
H           -3.01591212582228        7.13116436527263       12.45114608389512
H           -0.64590814409280        7.65489247644599       12.83863505404971
H            1.10064445909071        6.37774089508406       11.66912731703684
H            0.10977640968754        3.80360367264304       12.57334152708897
H            0.59205645264809        3.38403389843950       14.93453119980814
H            2.86494862870480        2.76513937177904       15.63694849806867
H            4.65620222541820        2.57558821872370       13.96393952673546
H            4.18271549284553        3.01206949677814       11.60091558849295
H            2.81039473366020        2.08561479091808        9.44011050707310
H            3.68802608414124        3.63021677388794        9.38817296060421
H            4.31315929994454        2.51879501388061        7.33987031877947
H            5.02922162853844        1.95684288505155        5.06599972833198
H            1.85700090405444        1.19900400642138        2.29410259997836
