78
 energy: -15.752767104613 gnorm: 0.000508739301 xtb: 6.5.0 (97a52f5)
C            1.20000623390308       -0.52226090228818       -0.16430394451372
O            2.26765535258475       -0.01222980701309        0.59693572306397
C            3.16275402821392       -0.97558934999115        1.06893466281988
C            4.24364039492055       -0.53229640221830        1.83682782090528
C            5.16710256318825       -1.41255691364172        2.34148872799868
C            5.05711237858938       -2.78284402256775        2.10245176877590
C            6.05543035232757       -3.73190889710263        2.63783318960049
C            6.63745977980591       -3.53312910892982        3.88465212643866
C            7.59539633896043       -4.39904775018720        4.41070833220111
C            8.14107451109085       -4.06733433986969        5.71997020933891
C            9.12768362436715       -4.70014567810084        6.37875615727943
C            9.65122101117365       -4.32213638168075        7.67441076492900
C           10.80697493034601       -4.94763406334200        8.15270187676706
C           11.34277601300516       -4.60959436289174        9.36928390137728
C           10.74267869740929       -3.63725911594190       10.16832289125365
N           11.31188862073229       -3.27385542215206       11.42990987962212
C           12.73855263964242       -3.23479226370639       11.58639298943610
C           13.33827625839290       -3.64429224441315       12.77424224289726
C           14.70644920574521       -3.60138454410578       12.92097816188151
C           15.50028727896590       -3.14900532932854       11.88510785049288
C           14.92033193805064       -2.73982070871924       10.70041203291688
C           13.55262407610973       -2.78188244309592       10.55137951427832
C           10.46084913293932       -2.93926061837910       12.53618941533179
C           10.82322278549361       -1.94293009477255       13.43872339765159
C           10.00856109538198       -1.62958918981392       14.50328614661335
C            8.81749443058933       -2.30450734797033       14.68607055273450
C            8.44350612394603       -3.29475327329968       13.79893534116253
C            9.25668039908211       -3.60990055050442       12.73387635253303
C            9.58232954478830       -3.02006690876180        9.70197812434141
C            9.04872511332402       -3.35135310690509        8.48153310451268
C            7.97746161486121       -5.52520840212574        3.64698235207451
C            8.97319614133920       -6.40061540907953        4.07284919230624
N            9.81102157225313       -7.12236351165875        4.43453958127067
C            7.37859164433300       -5.75443816352081        2.38690283155649
N            7.72353630136917       -6.87855031235041        1.58223940442513
C            7.87380171361076       -8.24893473790478        2.11773737927666
C            9.26616454877201       -8.81060604425447        1.81144912971356
C            9.57835407705476       -8.70999124610690        0.30859745750636
C            9.39360219694366       -7.27015687626304       -0.20077461790268
C            7.99263340938422       -6.74671225897658        0.13463242863646
C            6.43999135972861       -4.84688421969772        1.90625722733630
C            3.98010361147068       -3.22837627176148        1.33464908581530
C            3.05468686775900       -2.34901951407153        0.82923414117470
H            0.56488034702203        0.30929103156124       -0.47138059064524
H            0.60993692446712       -1.21375408990526        0.43824044511751
H            1.58384997318376       -1.02123295700853       -1.05488699781591
H            4.33458683435298        0.52350518117498        2.02082955610249
H            6.00051573670900       -1.04526474235901        2.91479218042767
H            6.33301267026048       -2.68203852527489        4.46645381102407
H            7.70966616658318       -3.20085757588286        6.18730197757592
H            9.59962928449842       -5.54955817422630        5.92462704567422
H           11.27967353051963       -5.70187676862968        7.54699722444404
H           12.23086570946164       -5.09964022835988        9.72822771871717
H           12.71493445282287       -4.00443866483701       13.57385016352632
H           15.15893934217497       -3.92248584661269       13.84487834687761
H           16.57120745622096       -3.11558941520703       12.00107197553345
H           15.53890820759556       -2.38644462457274        9.89169471655869
H           13.09361965898099       -2.45643488271860        9.63423998122420
H           11.74802156540650       -1.41474016600893       13.28585745606597
H           10.30041632136956       -0.85607704928397       15.19464604958283
H            8.18074761615009       -2.05910701013075       15.52019957561816
H            7.51468015243635       -3.82252787925425       13.94124722447329
H            8.97609266873027       -4.38760227976998       12.04528888769099
H            9.11855760559785       -2.26427683582675       10.31140827372949
H            8.15002265473407       -2.86365685319890        8.14916001403263
H            7.09856587729694       -8.87527599543992        1.66614884927511
H            7.66936708251596       -8.23576282076894        3.19331325660827
H            9.35223948993362       -9.84813700749751        2.16231175905459
H           10.01311578920438       -8.24327945649011        2.37988041089020
H            8.91052194720963       -9.37998762492841       -0.24665851086575
H           10.59548478848156       -9.06906862780118        0.09836310801485
H            9.58583295080108       -7.20723741429595       -1.28067200785172
H           10.13998699993288       -6.62100909674379        0.27306828184973
H            7.22626155679404       -7.30529251164735       -0.41078712488016
H            7.88397861699219       -5.69631323860255       -0.15446632671902
H            5.99498680259016       -5.02361888473537        0.94507480531291
H            3.87013391992871       -4.28343778563182        1.15283147368047
H            2.23627938707073       -2.72394306960328        0.24223208225247
