58
 energy: -11.506253974826 gnorm: 0.000396013183 xtb: 6.5.0 (97a52f5)
C           -0.00067595736760       -0.80340362816416       -0.38680478785759
O            1.27030155666114       -1.38902937439857       -0.23785999703538
C            2.16697476792257       -1.11260908621148       -1.27124453104363
C            3.45942961489956       -1.63557656191560       -1.16164205453634
C            4.40524315830904       -1.40438286949116       -2.12753111107922
C            4.10636744484693       -0.63985162411550       -3.25694898505951
C            5.12498320056914       -0.38501551972807       -4.29572192527414
C            4.78117162454614       -0.34045769598383       -5.64487529733477
C            5.72235623247103       -0.10637742887804       -6.62896112237374
C            7.05980573208111        0.12782343501099       -6.26822653359336
C            7.43355796861169        0.01399081447966       -4.91889653812228
C            6.46729578347001       -0.22450464659716       -3.96108580123265
C            8.88002620200073        0.04469237166576       -4.50926820226610
C            9.80180009748593        0.79506986341781       -5.48553374006852
C            9.39737084569675        0.68743762778142       -6.92980972293101
C           10.33937184399928        0.92248789565715       -7.91236586138356
C            9.99941214216806        0.95727261195461       -9.26248755917353
C           11.02061644222571        1.20911518667541      -10.29937912240138
C           10.94235262873169        0.59477662801093      -11.55061832410574
C           11.89517753367759        0.82497565167650      -12.51014531690901
C           12.97468515288782        1.68148761452529      -12.27090408839195
O           13.90167365401721        1.85607594133919      -13.29974022710740
C           14.97444020941049        2.71219444142349      -12.98843527427826
C           13.04935984320573        2.30010355524532      -11.01848400729673
C           12.09567632305044        2.06761774412565      -10.05918575671839
C            8.65864861983916        0.78797462193502       -9.60026908878220
C            7.69046352598073        0.55274228244638       -8.64308681234523
C            8.06172315458255        0.44663496992442       -7.29234924100337
C            6.24404621360877        0.52338594045739       -9.05367154312583
C            5.31755531961915       -0.21662303441618       -8.07314041442032
C            2.81431110835954       -0.12278745957903       -3.37259394027697
C            1.86707881924379       -0.35050581381227       -2.40550244835870
H           -0.60711846027844       -1.06667721324390        0.48041709313696
H           -0.48408458930096       -1.18666826280845       -1.28611370493663
H            0.09368662267041        0.28208054019065       -0.43484779811381
H            3.69422923918282       -2.22675672400666       -0.29437374138885
H            5.38840754041778       -1.83022378348525       -2.02718612960700
H            3.76249823543829       -0.53123490946929       -5.93127888536612
H            6.76174491307170       -0.29113119479416       -2.92923921583905
H            9.22390588222844       -0.99127735256632       -4.40259088327434
H            8.95677228274971        0.48132837244326       -3.50542213499509
H           10.83497068278577        0.44128753109810       -5.37766070952931
H            9.82960761730720        1.85880072911613       -5.21988876808792
H           11.36254079864833        1.08524003439610       -7.62523425561425
H           10.13044406761295       -0.08225039922994      -11.75220194456020
H           11.83366501906850        0.34460576061262      -13.47047996323749
H           15.63833207653212        2.76402219728086      -13.85197339456279
H           15.53141935251326        2.31710065337711      -12.13804548458579
H           14.60008036489480        3.71292144099299      -12.76979092701977
H           13.86249337411514        2.96872384884294      -10.80249697451375
H           12.16160720909793        2.56768167724488       -9.10849189703179
H            8.36340975416614        0.87955678512382      -10.63009126594327
H            6.16707118684987        0.07983064585060      -10.05445631040036
H            5.90373415270842        1.55965625045234       -9.16849117834775
H            5.28305707583795       -1.28127954438394       -8.33427741091271
H            4.28655451092956        0.14295224970818       -8.18243553906391
H            2.56912238663444        0.47874837849191       -4.23077557507623
H            0.88270789732267        0.06446783428040       -2.52243362523052
