54
 energy: -11.302383382984 gnorm: 0.000315263306 xtb: 6.5.0 (97a52f5)
C            0.40407976145111        1.22658394449564        1.18839720688999
O            1.76742517018703        0.89903880565410        1.30617437698229
C            2.64723076624721        1.89081801197978        0.87152745426874
C            4.01717343860638        1.62120257246434        0.95449402246114
C            4.95001718360935        2.54205440452983        0.55062849756594
C            4.56068801562594        3.78194571506811        0.04212418649894
C            5.56346267631451        4.77888166074621       -0.38850508302386
C            6.74670962302973        4.37652018664042       -1.00706661437702
C            7.70675383004091        5.29715820915166       -1.41761498483272
C            8.92709599303311        4.90013733759907       -2.05356139939677
C            9.84326014895885        5.81301347184572       -2.44382799378783
C            9.63024430145825        7.21429024648102       -2.23805793009656
C           10.55792769378921        8.17474832055639       -2.63168722157133
C           10.33615434222883        9.53551064734994       -2.42269098218674
C           11.33200353833494       10.53862809527717       -2.85519459025618
C           12.05723500182960       10.37167825178960       -4.03571954352236
C           12.97049238903281       11.31152292827338       -4.44078482111992
C           13.20689628159635       12.46636325413417       -3.68770714896204
O           14.14917368283273       13.37282794467265       -4.17465913493913
C           14.33451726067774       14.51687296388856       -3.37704678540899
C           12.48216762036397       12.62989104475335       -2.50232178342691
C           11.56874334591991       11.68813625601476       -2.09927425127372
C            9.15364369123490        9.93629494091458       -1.80212910308715
C            8.19548987613672        9.01500286925706       -1.39024024025238
C            6.97506730354798        9.41272733662969       -0.75536809137733
C            6.05844090802032        8.50008752827950       -0.36656009085671
C            6.27109159785171        7.09926475412319       -0.57448705447142
C            5.34303604254163        6.13987736722800       -0.18076152982009
C            7.46854708585493        6.67570522701726       -1.19993427495157
C            8.43358455463864        7.63684698844434       -1.61016362506537
C            3.19402103319273        4.05338020809200       -0.04333947415766
C            2.25863009030464        3.13352040132187        0.35998529979648
H           -0.18712503483230        0.38342562704834        1.54743816939353
H            0.15537323948470        1.41254273502096        0.14294927984844
H            0.17842057377949        2.10182509474573        1.79854800285488
H            4.32204853204554        0.66808260490780        1.34865438974699
H            5.99875772765794        2.31841445417656        0.64140076952563
H            6.91787975197850        3.33103109202961       -1.18682506534928
H            9.10367633788698        3.85101979074382       -2.21553773647743
H           10.75525292659424        5.49692842981503       -2.91970267768620
H           11.47365320569688        7.85543804277888       -3.09459300963069
H           11.87915906542018        9.50039428127635       -4.64186821786708
H           13.52379696683784       11.18111123930394       -5.35384189184592
H           15.08429138562267       15.15152592157753       -3.85062207689612
H           14.69081036199872       14.22687697537680       -2.38796058479376
H           13.39890718404860       15.07197452630451       -3.30056814118737
H           12.64221977206473       13.50304740014353       -1.89666369342389
H           11.03234293780956       11.82460663102364       -1.17623325630105
H            8.96597905449879       10.98381759941363       -1.65299714753126
H            6.79931830038853       10.46185735915143       -0.59244785571682
H            5.14621399408173        8.81608996950693        0.10884401477004
H            4.44219431183292        6.45863524727884        0.31071629566972
H            2.87458087941700        4.99739109720703       -0.44967808086244
H            1.21408427720420        3.37261198649390        0.27875122152058
