98
 energy: -20.513534542837 gnorm: 0.000460064624 xtb: 6.5.0 (97a52f5)
C            5.87869578108264       -0.46368775836768       -0.86935285573400
O            6.84112365074624        0.48538864335010       -1.26291012114230
C            7.09969701809795        1.47996415950559       -0.32001340570366
C            8.08589246029623        2.42594494392122       -0.62243065318866
C            8.41090047983740        3.42601397246646        0.25906338591447
C            7.76404481611485        3.53217846317748        1.49155087990017
C            8.12849999299812        4.57443508999931        2.47190271820786
C            8.53042492186436        5.85550131662102        2.08214955390355
C            8.83473322333531        6.82094110009954        3.01528684693396
C            8.74935396452367        6.54128225290970        4.37951735547608
C            8.99457079183819        7.54978603145459        5.44517954745487
C            9.96457146815444        7.32593336852814        6.40868389938145
C            9.87020763315140        7.99055248229864        7.65936113392658
N            9.01613037714734        8.97252877377047        7.90423785264356
C            8.16362459513689        9.32368967331058        6.90563342556593
C            7.26171962132726       10.38382246446816        7.12895555162121
C            6.31410440507833       10.71419253685087        6.20560243805589
C            6.21243782542510        9.99440725366989        5.01445540621388
C            7.07059358137829        8.96516440650008        4.76188562941277
C            8.07509804117155        8.61490886002391        5.68571082948335
C           10.58952366905744        7.38480944516963        8.79643594967395
C            9.95967821837222        7.30327392654283       10.03866519793494
C           10.39180007952947        6.41391913838084       11.00390124765035
C           11.54606122717735        5.65004393460131       10.77429937157846
C           12.23093349277736        5.80394411170438        9.56752545583412
C           11.74192831959495        6.61907073795197        8.56364828676663
C           12.24917533582877        6.52554487188018        7.15485140938298
C           11.06620921279178        6.31938533959482        6.18519411551661
C           11.83061105263245        4.47992443824266       11.62943466823137
N           13.05958417971185        3.98581113444900       11.63021707620266
C           13.23871756505569        2.75421989498806       12.17660463588886
C           14.54131798801519        2.21819797575849       12.22910744418893
C           14.76814637983612        0.95118723190392       12.68013122201052
C           13.70290146607864        0.15048278643315       13.09487847266385
C           12.42874658040596        0.63530958629961       13.05968271422835
C           12.16539257873383        1.94535422761579       12.61337118833315
C           10.84354582611490        2.48306061835824       12.58545767494520
C            9.65360688285135        1.58583193621003       12.60289524950951
C            8.61968184322321        1.69161335858204       13.53568833184356
C            7.44188865318091        1.00109725899993       13.35872358623561
C            7.24891218080204        0.17582020843368       12.24682817642258
C            5.94372007837470       -0.45254482915710       11.95775826539463
C            5.11100638598773       -0.92621667779384       12.97276358720696
C            3.89421727730337       -1.48849264005944       12.67857880284897
C            3.44383645163910       -1.60312122575539       11.35817228751585
O            2.19318476615404       -2.18209043214513       11.14435453183308
C            1.79937048111417       -2.25248325349448        9.79447605305035
C            4.27920420461325       -1.12610658851092       10.34284242184149
C            5.49547891549556       -0.56633295288839       10.63897799948010
C            8.31037221476484        0.01942225991785       11.35523034526710
C            9.48296617349354        0.70864369897510       11.52937860480818
C           10.71517408368494        3.81167853977550       12.20402914605338
C            9.38099437608724        4.51412008533630       12.24998428759079
C            9.52830310160049        6.04765374504336       12.17282825429566
C            8.36122829289396        5.25782171773262        4.76635362424673
C            8.06127207750244        4.29653279628656        3.83676220066839
C            6.76917740773969        2.59680619389201        1.78879382296908
C            6.44348714551812        1.59575366635401        0.90979849149903
H            5.77776396266801       -1.20526694472770       -1.66242030859933
H            4.91506107629827        0.02394015047819       -0.71739416837739
H            6.20221920423482       -0.96553463083201        0.04349051764036
H            8.59312491463839        2.34175448775654       -1.56702423908973
H            9.19032815233559        4.12611749876951        0.01389446499326
H            8.57736807026887        6.09121038806703        1.03340195674965
H            9.13665797283282        7.80565465495218        2.70288987274129
H            7.33128016764725       10.92054725079599        8.05889673444836
H            5.63305092471367       11.52671078768858        6.39897750835224
H            5.45273629356590       10.25373052857608        4.29547638978870
H            6.98774394543740        8.40753050739345        3.84616486164379
H            9.03682052675563        7.83605185327564       10.18120471668252
H           13.07103776191215        5.16293890668173        9.36989349576339
H           12.97719306390554        5.70980523217170        7.06910897968073
H           12.78864537805881        7.44579453407021        6.90367404483444
H           10.65907903148838        5.31035481975193        6.31272881094618
H           11.40364836302465        6.37943643328428        5.14323481236745
H           15.35654900142244        2.83399761592375       11.89170455353429
H           15.77254585748086        0.56174544676759       12.71052791057084
H           13.89050579140200       -0.85154494582924       13.44420694635509
H           11.60608706131269        0.02276044626878       13.38526447859185
H            8.74384481532251        2.34434096446172       14.38237644354823
H            6.63407710782559        1.13257704154403       14.05724182081293
H            5.43983568409183       -0.85821835412117       13.99504663770645
H            3.25604583672678       -1.85511115384149       13.46275185188596
H            0.81321214917179       -2.71509830953377        9.74396128871167
H            2.50527851042235       -2.86459683829639        9.23177772482912
H            1.74019826556279       -1.24907856817741        9.37094835542890
H            3.96483065335044       -1.19286336063318        9.31728637580091
H            6.11189181758922       -0.18316497333451        9.84417625918110
H            8.19512252566782       -0.63607209974920       10.50943245825132
H           10.27383400189159        0.62111862709512       10.80381387357764
H            8.84935338775108        4.23229324400339       13.16551526791615
H            8.76369867698074        4.15561008651113       11.41844586827039
H            9.98386478494828        6.43157033798308       13.09274353687330
H            8.54956260884714        6.53527786623513       12.08777814169350
H            8.27924391801541        5.03703869664314        5.81704541780833
H            7.77823939390629        3.31019232830773        4.16092517491490
H            6.24074316847036        2.67590114680835        2.72306009443889
H            5.67372534864087        0.89309399568437        1.17203744559570
