38
 energy: -8.244737904650 gnorm: 0.000606016622 xtb: 6.5.0 (97a52f5)
C            1.47834578178449       -0.78266332222668        0.42995437683390
O            2.15607672393281        0.41074691767443        0.12491728578720
C            2.99363890892123        0.88722513773607        1.13535396381665
C            3.67902155415275        2.08113324959081        0.89336693768036
C            4.51917453978545        2.62395163876737        1.83257379987510
C            4.71198536850135        1.99493083953539        3.06007177233583
C            5.59951610826426        2.54303245950130        4.10076601040867
C            6.14440291477498        3.79524671633908        4.07494581818660
S            7.09422083237383        4.04623996847131        5.47345334582975
C            6.70422958089658        2.43411931387628        6.03255693191519
C            7.20176413609791        1.89614444150375        7.27271864096927
C            8.01676854802270        2.72187575128266        8.05150507955213
N            8.69258362284752        3.40272277558483        8.70742306906803
C            6.85773817794069        0.62923529222954        7.62022435992832
C            7.22684727762344       -0.11130502652092        8.80669441557013
C            6.76130764835648       -1.42090459420453        8.95412847298056
C            7.07789323925033       -2.16607249817857       10.06320602714093
C            7.87240084772258       -1.63489679029576       11.07227482490981
C            8.19228969590075       -2.39743650528880       12.20275608914410
N            8.45316672470972       -3.03182406824042       13.14080108431538
C            8.34135993163774       -0.33369811714993       10.93509021226864
C            8.02661167431419        0.41224479186365        9.82698691622822
N            5.92226808025272        1.78939533082020        5.20872425135626
C            4.03698161097780        0.80293492549598        3.30233468351197
C            3.19455802808641        0.25713004711838        2.36656431533739
H            0.85431134523675       -1.04989120675984       -0.42380617879992
H            0.84145974864439       -0.63382503262766        1.30310634251207
H            2.19849903616816       -1.58255079666109        0.60783974768549
H            3.52921491037114        2.56623266050100       -0.05514146956985
H            5.04049607942175        3.53993858318742        1.61774283986853
H            6.00186874854695        4.52891706865081        3.30751964534170
H            6.22667873310907        0.10916380201477        6.92176369190969
H            6.14467367240685       -1.84682770521704        8.18141416739668
H            6.71346305869267       -3.17419435178393       10.16580749507367
H            8.95747556999013        0.08126907367041       11.71499249920995
H            8.40490679927261        1.41461248249743        9.75007779664126
H            4.18950070037124        0.31350172440040        4.24880982827783
H            2.68557004063699       -0.66367497715573        2.58567090949201
