13
 energy: -2.002218658877 gnorm: 0.000276316115 xtb: 6.5.0 (97a52f5)
C            1.02079740648920       -0.09607291276610        0.00439369953232
C            2.33727397787319       -0.04652265771921        0.16977975015310
O            2.94446738940435        0.30915471677913        1.35691134233542
C            4.36511152346425        0.28140554784705        1.26428865465114
C            5.02408169802991        0.67246851894612        2.56950597180449
H            0.57256767641912       -0.37549748882981       -0.92823172823258
H            0.36938670921504        0.14767129141984        0.81792672984942
H            2.99289065908295       -0.29339271946361       -0.65418626566262
H            4.65958285262199        0.96055351149342        0.45416394983066
H            4.65958469947519       -0.73131494579384        0.96107235061411
H            4.72224568286701        1.67718717340191        2.86705889015416
H            6.11367186699789        0.65295009246604        2.50435623965194
H            4.72224785805990       -0.00311012778094        3.37050041531842
