40
 energy: -8.142283529495 gnorm: 0.000318260510 xtb: 6.5.0 (97a52f5)
C            1.69558851800103       -0.68241439102282        0.72119207282418
O            2.34122650353529        0.33808554487301        0.00195032500563
C            3.15022162783859        1.17916755339546        0.76747576187920
C            3.80085917692802        2.22259166993878        0.10377777741390
C            4.61173767183290        3.09992983091407        0.77780799045690
C            4.80887101612339        2.97202661508547        2.15008167995236
C            5.67224778826314        3.88893533488557        2.91498526644085
C            6.16774318980887        5.06787791568409        2.43657952629905
S            7.11056520351131        5.83216591067667        3.63916416634682
C            6.78684862734234        4.51128045322341        4.74060117912102
C            7.31387761996200        4.46558605732982        6.08081419551053
C            8.10329396781878        5.54037282492598        6.49877998983626
N            8.76075229286698        6.43048726166811        6.85252108399054
C            7.02440067747396        3.39467983245697        6.86132960074923
C            7.43811517594961        3.13437394290594        8.22477937766098
C            7.02714916857300        1.94733208068898        8.83474836871624
C            7.38868148440502        1.65412055584711       10.12778223426818
C            8.16501893301456        2.53529685669028       10.85084189404486
C            8.57701305798594        2.19315503110636       12.27094661704543
F            7.58822817321620        1.48405016784130       12.85237563462907
F            9.70696214658524        1.45943340975579       12.22149336319540
F            8.79351577604684        3.33615255494866       12.95270016531548
C            8.58746140845494        3.71047367336331       10.26471182334417
C            8.23016743597003        4.00946311075695        8.97237945448533
N            6.02665061705268        3.59089444268536        4.21313716658660
C            4.16853182435843        1.93073115067717        2.81325943850416
C            3.35521546332902        1.05183948311763        2.14365226894770
H            1.08794490218867       -1.25947992646010        0.02288115531084
H            1.04622494736579       -0.24525937098930        1.48092726240381
H            2.43735880750063       -1.34032775190932        1.17599524912591
H            3.64864812438834        2.31926796289524       -0.95665402417318
H            5.10848027516893        3.88865424976946        0.24141584727531
H            5.99599542835684        5.47613762999970        1.46117179919974
H            6.40742593738545        2.63979266451736        6.40746962264379
H            6.41896732850416        1.25427583645031        8.27918346459516
H            7.07147938494943        0.73849337819802       10.59892238175803
H            9.19756457788479        4.38595620045928       10.84193606123246
H            8.57029129223317        4.93174060643716        8.53876260248315
H            4.32582729217993        1.82742093496987        3.87284534696901
H            2.87409715563515        0.25827871122953        2.68513480859523
