37
 energy: -6.247344991157 gnorm: 0.005129604798 xtb: 6.5.0 (97a52f5)
C            1.43721123598969        0.24894871528848        0.42815353015899
O            2.38847441387528        1.13042595537044       -0.11906509607101
C            3.35137080436681        1.60257290339924        0.78283315485977
C            4.40759515159106        2.31682657857115        0.28551385576696
C            5.35396400002363        2.79432113659970        1.05962441971761
C            5.33944791980784        2.61413824739999        2.41714079617471
C            6.37779189445421        3.17345841831978        3.22996909330059
C            7.39633292018688        3.90298879246730        2.81878355665543
S            8.50749676064158        4.47035140172631        4.01511039302257
C            7.89065981754951        3.77884919545298        5.43458028616617
C            8.47119557742821        3.98534683953557        6.68641791566924
C            9.61853762765980        4.78827467951918        6.73262407179811
N           10.56548199998264        5.46148926058438        6.70464097154029
C            7.93500424100421        3.43177057521828        7.77153673698827
C            8.32133947930759        3.50207768957351        9.12742246065562
C            7.60606314760486        2.78519388816443       10.09937531097815
C            7.97275118427386        2.86577222470141       11.38644787552017
C            9.02572879931058        3.63297587333060       11.76545759435983
Cl           9.48390256021103        3.73589961695330       13.42620475754003
C            9.72184066273013        4.32316254442269       10.82258903920563
C            9.37891393813625        4.25940971893553        9.55531448397801
Cl           5.20337458786051        0.90140748494299        9.48781911392955
N            4.29606254580532        1.90303862078524        2.97592235016164
C            3.32131623155214        1.40755305958133        2.17692332117682
C            2.05570024434494       -0.86070097175538        0.87716143710585
H            0.73414034306448       -0.03090262378745       -0.35783888245936
H            0.88688553547668        0.73984766019545        1.23166197528038
H           -3.65271490564058       -3.46145787987610        2.64742245638177
H            2.26322094369927        1.36722223030514       -2.32047281247645
H            7.54465791522878        4.15402583827849        1.78716856360098
H            4.17853005526368        5.47848053578233        0.94750299428547
H            6.77044183053515        2.16312977084724        9.81193206038893
H            9.12210650472152       -1.44447718807278        5.48173462032733
H            5.22608545997465       -1.15265853044620        9.38614590186440
H            3.59555380430891        1.53257614882646       10.60627745175033
H            4.26943322914628        1.75690112184899        3.99476367127488
H            2.50343144650604        0.85995982663060        2.61115240546486
