39
 energy: -8.208482573108 gnorm: 0.000942685447 xtb: 6.5.0 (97a52f5)
C            1.90894746172065        0.28378282634566        1.03312458145882
O            2.34916239129817        0.05617023914921       -0.28182879552828
C            2.97646241217612        1.14404684471846       -0.89137564680199
C            3.44079997125308        0.96672758453281       -2.19729540530390
C            4.06779068872282        1.98162527280724       -2.87431783179315
C            4.25797813003046        3.22351234386958       -2.27447294859591
C            4.92512291247302        4.34002991019947       -2.96733790954022
C            5.18475270880618        4.37113083528153       -4.30769353113751
S            5.95829618460519        5.83818474952735       -4.71652356730067
C            5.89103743201472        6.34609826709290       -3.04324184775654
C            6.41288269719088        7.61188731179394       -2.59758998845227
C            6.97917323722373        8.44549580667928       -3.56510830682835
N            7.44877806409234        9.14357306485978       -4.36643698618015
C            6.33332650186391        7.93085608263734       -1.27975485561106
C            6.78836989684735        9.13307751798580       -0.61750662926750
C            6.59830369635958        9.25314921492469        0.76299358047460
C            7.01201003601051       10.37424681323375        1.43865499625590
C            7.62695068625252       11.40945428617317        0.76125519062121
N            8.06208359494609       12.60008947679748        1.48396996256948
O            7.79979447176368       12.68586630265301        2.69048091514059
O            8.67577252611454       13.47623999305866        0.86191692048689
C            7.82471859082908       11.31138556344184       -0.60255847349499
C            7.41333784511612       10.19346391609850       -1.28339362031560
N            5.32451478011099        5.45966248283324       -2.26925891538361
C            3.80248102310271        3.40252797392027       -0.97286117855955
C            3.17315213073043        2.39059308110674       -0.29219558401050
H            1.44818019973185       -0.63366533520112        1.40230591074389
H            1.16726808680496        1.08285973086484        1.04133034564358
H            2.75807525849430        0.53580919902464        1.66923745612572
H            3.29401227718983        0.00678752580798       -2.65941482665128
H            4.42514718732419        1.81530515035655       -3.87462405292489
H            4.93892478159353        3.60547498139233       -5.01553965993989
H            5.87284714299773        7.19276357945819       -0.64759955524408
H            6.11992438909285        8.45124281337433        1.29865709064323
H            6.86469907723830       10.46924007874074        2.50144707191706
H            8.30688964068434       12.12799032788084       -1.11422847343441
H            7.57700111097665       10.14119552916237       -2.34368263760210
H            3.95335784874524        4.36041641361395       -0.50662435027709
H            2.82749292746720        2.56192224379568        0.71036155584452
