37
 energy: -7.663093319532 gnorm: 0.000496253228 xtb: 6.5.0 (97a52f5)
C            1.41119639656679       -0.56596262275359        0.51166786509332
O            2.26989679015049        0.52378427297051        0.28245314906643
C            3.11786366917668        0.83835554167985        1.34757097098699
C            3.98959146727537        1.91755875116529        1.17949116949428
C            4.85512121099148        2.29683212187751        2.17461195935787
C            4.88705952253546        1.61091958718495        3.38595253224034
C            5.80535640775482        1.98177098761719        4.47776655756174
C            6.43850253717035        3.18746063177549        4.57760341145638
S            7.40327666463994        3.22341154049168        5.98925355202114
C            6.89592579609374        1.59462106277786        6.38109279013769
C            7.35787286015368        0.89859826494128        7.55418244778873
C            8.26006001794921        1.56626148962507        8.39110582312701
N            9.02028583983553        2.14937013927698        9.04921599104586
C            6.96870504813970       -0.38837289654665        7.75736169568744
C            7.33139102435535       -1.23255821185131        8.88898225574841
C            7.75799976237591       -2.54673615341483        8.67196020066399
C            8.13453649950511       -3.35276060097028        9.72077250786506
C            8.08652097858366       -2.87620106434073       11.01963505703869
C            7.63972218262625       -1.59852294252346       11.26585453491356
C            7.24171658955812       -0.78247053349817       10.22007360629168
Cl           6.45924315615575        0.70730508537705       10.58063336875174
N            6.06910350757462        1.09657558339920        5.50141702566567
C            4.02590661492253        0.53196474630446        3.55581033955257
C            3.15667975458208        0.15141779098482        2.56389813839961
H            0.80289910530102       -0.71792943083002       -0.38077086319560
H            0.75547244082202       -0.34927032946761        1.35612057655337
H            1.99688018218359       -1.46688159747003        0.69872311163987
H            3.96569411737729        2.44507250398753        0.24249186005267
H            5.52559459952671        3.12282941006503        2.01661097436067
H            6.34621964427659        4.00403230657078        3.89017360375476
H            6.37568263547738       -0.83933402864136        6.97923776484681
H            7.81216044845859       -2.91390013006998        7.66158730083123
H            8.47535228007010       -4.35709930289326        9.53078196714384
H            8.38970141694791       -3.50850328472937       11.83763716753589
H            7.57446074101879       -1.22150921716445       12.27263800223528
H            4.05504042072218       -0.00240981416402        4.48955263616664
H            2.50093766914439       -0.68401965674523        2.72708894811171
