36
 energy: -7.597895876941 gnorm: 0.000379999380 xtb: 6.5.0 (97a52f5)
C            1.76941958753661       -0.10745200614214       -1.04956879617882
O            2.27478152872408       -0.27052336948224        0.25239636339140
C            3.06849716056091       -1.40479804746895        0.43720263231975
C            3.62216609230749       -1.60406081259643        1.70493177595390
C            4.41534866273056       -2.69102131378956        1.97406208722430
C            4.69068482693224       -3.63091160844608        0.98400194568244
C            5.54141847354674       -4.80985233315351        1.22444161997224
C            5.97123971026292       -5.21892068461970        2.45461334970557
S            6.92565733933141       -6.62895066786220        2.29991633395394
C            6.69324340303148       -6.59961240026030        0.56510065493489
C            7.26488075166924       -7.58536916155291       -0.31654288688018
C            8.02587624596204       -8.60655036642285        0.25943610601033
N            8.65928259743256       -9.45904599650610        0.73124757818899
C            7.04044839886284       -7.47909415654411       -1.65182311298861
C            7.50721345347352       -8.34940827130092       -2.70688774551036
C            8.28235585387657       -9.48619471761322       -2.50320372774179
C            8.66945555686686      -10.24810048106500       -3.57370457641986
N            8.36013393119687       -9.98795561267393       -4.83304247811802
C            7.62389631312881       -8.90602076340939       -5.02702190341710
C            7.18176208373078       -8.07463435451698       -4.03057240580626
N            5.95356356707372       -5.59784011247604        0.17102684335078
C            4.14333259235474       -3.43524099888958       -0.27974235602606
C            3.34852594549860       -2.35026700729439       -0.55300326653973
H            1.18716237870102        0.81429026544236       -1.07897810125553
H            1.11973420665619       -0.94627299674898       -1.30234888687208
H            2.59339654244390       -0.02920672960212       -1.76008663413750
H            3.41039987961271       -0.87670395520269        2.46843059921896
H            4.83715183576107       -2.81501087973891        2.95554815586429
H            5.74665948566463       -4.74573978934560        3.38898013323634
H            6.43967061096061       -6.64322479123122       -1.96278654753495
H            8.57884984594710       -9.77208121393213       -1.51146686293554
H            9.26963712319139      -11.13014757681686       -3.40558826232318
H            7.36712937346269       -8.68485984857174       -6.05226161163971
H            6.58498663475501       -7.20984286667901       -4.26425912778787
H            4.35853859983405       -4.15918177351975       -1.04637388666599
H            2.93790940691212       -2.22997259995896       -1.53862300222718
