52
 energy: -11.024687584494 gnorm: 0.000698200840 xtb: 6.5.0 (97a52f5)
C            1.66514344700239        0.55257966709152       -1.44054995890774
O            2.56284630479928        0.05124569940979       -0.48119318668919
C            3.19208672183840       -1.14494072412083       -0.83196516548762
C            4.08894617734239       -1.69198613898404        0.09002452396607
C            4.74332708289001       -2.86812340691929       -0.16927373180928
C            4.52318369178274       -3.55770859847397       -1.36065116066934
C            5.23091490941832       -4.81815037800193       -1.66411300738815
N            5.82584676723300       -4.98413102407964       -2.88900273026674
C            6.49678420951049       -6.10451894121253       -2.97255153817808
C            7.23174061259549       -6.53576907903963       -4.12930456086008
C            7.89892362834143       -7.76026766787216       -4.03824436912048
N            8.45440680577777       -8.77818475123684       -3.96257769966132
C            7.24773818331331       -5.74395557739330       -5.23531327889622
C            7.91890233306925       -5.97497552918447       -6.49389102696699
C            7.80073684209655       -5.01911822282250       -7.50785185753196
C            8.42204823789773       -5.18960378281578       -8.72046455494525
C            9.18804775832738       -6.32179555099762       -8.97399349679240
C            9.82094150348205       -6.49454794177574      -10.21130362401228
N           10.34434287592372       -6.63511704180109      -11.23940547924322
C            9.31160395600960       -7.27866738356807       -7.97305521238542
C            8.69167193272050       -7.11015975411847       -6.76062250732262
S            6.42032275349181       -7.05117851775734       -1.50736733580591
C            5.39339792464009       -5.87386786699258       -0.77138097704547
C            4.82209193388143       -6.04508664593351        0.55418739149409
C            5.45077901649186       -6.87129096728984        1.48951517678891
C            4.92023393190589       -7.05714846345941        2.73857840698596
C            3.72592230286874       -6.43548722676267        3.11820722875937
O            3.26111510000269       -6.67207675243544        4.41042960826730
C            2.06221311766838       -6.01469208223270        4.73886153107069
C            3.08355185560471       -5.62516325281186        2.17550207685114
C            3.61711552335021       -5.44064282681032        0.92679405425176
C            3.64729215134313       -3.00623727403796       -2.29207857662692
C            2.98987218685451       -1.82972669628716       -2.03435085294208
H            1.23990521423817        1.48136747958734       -1.05845639852893
H            0.86054055276415       -0.16484401907296       -1.60681283481690
H            2.19525543696894        0.76086269949331       -2.37082244660006
H            4.25483377640580       -1.16250557296794        1.01124603073026
H            5.43931290998037       -3.27118437704896        0.54581055139082
H            6.69060592897577       -4.82703910735687       -5.16151891874966
H            7.21217293266457       -4.13605276855218       -7.32756101637231
H            8.32475935457832       -4.44601768669330       -9.49326002166616
H            9.90440864906383       -8.15711295066227       -8.16519038123323
H            8.80737914368482       -7.86784947853225       -6.00827001122766
H            6.36799926928683       -7.36116081052709        1.21297506869893
H            5.41259131369948       -7.68868871516058        3.45645131945296
H            1.80858512428064       -6.25842838130369        5.77125912077171
H            1.26008479666319       -6.36011085390730        4.08543459276783
H            2.19477674430568       -4.93551056069029        4.65183316219741
H            2.15722184283350       -5.14397472671344        2.42968852798538
H            3.09499837724524       -4.83477915576535        0.20775599864634
H            3.49342105995058       -3.52489368194228       -3.22266277446304
H            2.31208579293457       -1.43207263148319       -2.76705367787363
