51
 energy: -10.453488994978 gnorm: 0.000638509618 xtb: 6.5.0 (97a52f5)
C            1.47562796468663       -0.14577889269658       -1.14772607223287
O            2.49479264462323       -0.09059629724108       -0.18049062331673
C            3.15366381754132       -1.30102394465748        0.04919576275962
C            4.17364094149197       -1.30619822247470        1.00486809180578
C            4.86092689659450       -2.45430884611712        1.30329600398556
C            4.55169838365217       -3.65388473022425        0.66397807501070
C            5.27591204185126       -4.90331338085286        0.98027565136993
N            5.83699695457113       -5.63868286954009       -0.03350401219471
C            6.51183514868138       -6.66798865654378        0.40961664062290
C            7.21916704748805       -7.60035360659190       -0.42527213029217
C            7.88334872939659       -8.65250312758459        0.21170814539374
N            8.43882321463847       -9.52616489672163        0.73971944752524
C            7.21751626315152       -7.40847690001904       -1.77240087791313
C            7.86650664019472       -8.19734584135207       -2.79260635822022
C            7.73447601031175       -7.80720989680757       -4.13240766557559
C            8.33669790715352       -8.51890484889511       -5.13987795074512
C            9.09042705133720       -9.64367309962551       -4.84195882835659
Cl           9.84899409787350      -10.53476555727065       -6.10655457320655
C            9.23385504779201      -10.04890994551260       -3.52397263495856
C            8.63265242363126       -9.33839267832380       -2.51642157623454
S            6.48010914057879       -6.80251276913927        2.15062656917754
C            5.47677232505066       -5.40013083116718        2.26434792595906
C            4.95925219965648       -4.89934318314805        3.52690178952074
C            5.60092942326988       -5.22332732305489        4.72517690282550
C            5.12793645568536       -4.76713233030011        5.92746002120043
C            3.98172704164080       -3.96873896246317        5.99922240045598
O            3.57539968886239       -3.53755804298147        7.26169510457231
C            2.41640590982170       -2.74185052652723        7.27141111475123
C            3.32478068899845       -3.66191766597072        4.80289951473319
C            3.79994703817950       -4.12062864252012        3.60186553066728
C            3.55381179515833       -3.64978138995222       -0.30727943436949
C            2.86425149517829       -2.50166203174550       -0.60640332840023
H            1.03471577533961        0.84747634677753       -1.23938674028225
H            0.70351545528560       -0.84908021363544       -0.83330678393021
H            1.89435637159345       -0.43830299332678       -2.11141242670452
H            4.40581858059033       -0.38213666718312        1.50361815144838
H            5.64684577588471       -2.44308655959480        2.03865591337232
H            6.66609660494787       -6.55329209602830       -2.12065178216648
H            7.15124470942024       -6.93373008131479       -4.36777573521115
H            8.23568060483615       -8.21609013451460       -6.16822554070093
H            9.82246474666337      -10.92449490822125       -3.30805510547209
H            8.75667763359415       -9.66823347415401       -1.50199839643745
H            6.48256082358134       -5.83912422131572        4.68892422141371
H            5.63124750704720       -5.01480459630096        6.84502268156597
H            2.19551114684170       -2.46904438391570        8.30401523085238
H            1.57589591118886       -3.30659532850220        6.86632439523809
H            2.58550199000603       -1.83328589152404        6.69211092827845
H            2.43462332747855       -3.06050947294719        4.82346418944289
H            3.26490620473838       -3.89370294816068        2.69722246321742
H            3.32870389797735       -4.57061193961769       -0.81726560187105
H            2.09267050424872       -2.52920049850621       -1.35363868836964
