66
 energy: -14.429374081661 gnorm: 0.000449881976 xtb: 6.5.0 (97a52f5)
C            6.08525408178088        3.55310222191717       -0.30980619151327
O            5.49423017007360        2.40911217594405       -0.87659437231422
C            4.97701356736154        2.59181381866337       -2.16341887629561
C            4.37763438421985        1.48912898610533       -2.77925079999732
C            3.84938977388545        1.58153345752393       -4.04210949967521
C            3.89840247271823        2.78207141109334       -4.73731411873999
N            3.36088539038840        2.87522959196002       -6.07327550185912
C            2.04965198056316        3.19349299234728       -6.47030028625356
C            0.92840454092700        3.52249579713552       -5.59890239768212
C           -0.31380111236824        3.78948192563907       -6.17328538328090
C           -1.40068707740307        4.10872747799884       -5.39808535373156
C           -1.28900231283594        4.17291144358188       -4.00905293404677
C           -2.45744373688414        4.54209819092436       -3.16951245704976
C           -3.28091420114045        3.57800571351592       -2.63806724287609
N           -4.36003729120730        3.80224303843843       -1.87644159046398
C           -4.63756226337864        5.05319575997906       -1.62767502773807
C           -3.89650440927443        6.15511452164260       -2.09497243151868
C           -4.24180225023139        7.49261488999434       -1.79744342075476
C           -3.48810725631736        8.52225906151235       -2.27652223529723
C           -2.36251128543765        8.26930049277582       -3.06887350391770
C           -2.00647612891773        6.98755514868237       -3.37233305906612
C           -2.76659027842847        5.90340372071040       -2.89241043794726
C           -0.04788813846204        3.90542591790490       -3.43069377891582
C            1.03633426124769        3.58717203362844       -4.20964207168160
N            1.92752844704267        3.16230266722477       -7.79067268322391
C            3.13875689970256        2.82656768547684       -8.28146800453009
C            3.53045115756878        2.65579758590401       -9.65703763471119
C            2.60934844576471        2.84267150213262      -10.68900725797342
C            2.98556028230171        2.67940449476775      -11.99532033978186
C            4.29218928361299        2.32554704551615      -12.29773394921514
C            5.21231004648449        2.13641364038263      -11.29681783001547
C            4.86485438301736        2.29352478548813       -9.94824568137363
C            5.82580627125706        2.09541230909659       -8.85698137078294
C            7.15842952329185        1.73401360969092       -9.09635478098755
C            8.04589679049177        1.55101378965867       -8.06625445773724
C            7.63901984465202        1.72150325518259       -6.75193229352341
C            6.34548794113454        2.07422886969142       -6.47977076306645
C            5.42040525256497        2.26728543895864       -7.51059538184630
C            4.05551505186788        2.63992240346203       -7.24552364655874
C            4.49057048624064        3.88550910918730       -4.13726040470503
C            5.02038212177681        3.79556829432655       -2.87374542099150
H            6.45614706691851        3.29494534030918        0.68267403112112
H            5.34280152810521        4.34630120405890       -0.21465889637768
H            6.92314202254380        3.88279556524224       -0.92517541016020
H            4.34240291688268        0.56138621053777       -2.23639552267252
H            3.39227085369567        0.72858348282659       -4.51254674049892
H           -0.40440957802360        3.74027457881640       -7.24445227270104
H           -2.35365424186390        4.31597671671457       -5.85343170527584
H           -3.05261393492241        2.54512064032731       -2.84602074435478
H           -5.50438770986390        5.24319738046376       -1.01622441175974
H           -5.10783307867598        7.68601957498983       -1.18851032668210
H           -3.75824574196859        9.53961018359073       -2.04546463598760
H           -1.77571882329714        9.09334258404736       -3.44004834630985
H           -1.14185650546523        6.78966517308719       -3.98137716991040
H            0.04683680526559        3.95628082380610       -2.35966905224179
H            1.98131817428469        3.38654810067377       -3.74345254540798
H            1.59980892594267        3.11676348694362      -10.43655456983493
H            2.26912132692168        2.82535827462337      -12.78702264237199
H            4.58511317022238        2.19843747958867      -13.32714375754564
H            6.21710751466872        1.86215934138637      -11.56075511166032
H            7.50010790182512        1.59446330300367      -10.10542258384919
H            9.06555135553610        1.27291959495272       -8.27759914427210
H            8.34105494655123        1.57633980731321       -5.94722247335606
H            6.02979596542188        2.20601786014248       -5.46203164169624
H            4.52835217896997        4.81130727928604       -4.68452628590411
H            5.47576185062438        4.66158973758329       -2.42951316664905
