56
 energy: -12.055753788586 gnorm: 0.000718599167 xtb: 6.5.0 (97a52f5)
C            1.21747507100994       -0.32384465510307        0.31308862118526
O            2.62017006609548       -0.32377298640879        0.20604106435953
C            3.28286647073035        0.38381325748104        1.20316843705282
C            4.68156934547799        0.42780112875336        1.14338687759914
C            5.41150860961876        1.10874870951999        2.07947803074321
C            4.78380276826679        1.79195532497179        3.12762231753001
C            5.55344998462114        2.52172319939178        4.14899754145548
C            6.71130735988191        3.22922743536944        3.82882084582443
C            7.04127945332772        3.56364343676064        2.42565963298582
C            8.34730040245585        3.42874686699083        1.95166329760429
C            8.66142410502208        3.74568310045866        0.64985642416953
C            7.68247538718821        4.20833621354701       -0.20614353803391
C            6.38683273683560        4.35828547615063        0.24531770233772
C            6.06864271879576        4.04436553275139        1.54668435719975
C            7.63553336633246        3.70099015357228        4.87557742346934
C            8.27992792528938        4.93566877683722        4.75587289119709
C            9.12817656484786        5.38976606795469        5.73340809229866
C            9.38326619938284        4.63367770147557        6.88164373132697
C           10.27152346441165        5.17206854057106        7.89446028373050
C           10.61354664921347        4.62571943683108        9.08361105212741
C           10.13756602863861        3.39650250918586        9.54036499327193
N            9.70938914399150        2.36432548080034        9.86342619381855
C           11.48668602920338        5.33823666843500        9.90786876755829
N           12.21346053258349        5.95531584531480       10.57482383799040
C            8.75537106516491        3.38938250792198        6.98751777803156
C            7.91110796395912        2.93283580760908        6.01030667758452
C            5.04180814722648        2.49069099490007        5.53844734572586
C            4.95949107205106        3.65354640267360        6.30671012259636
C            4.49553924514190        3.61195638146194        7.60143226779400
C            4.09477022598059        2.41304838197363        8.15523189827489
C            4.15535554731388        1.25421441582697        7.40790073559555
C            4.62043123279412        1.29066941010744        6.11324548880698
C            3.38697918990316        1.73330330103905        3.19748592020350
C            2.65416493071891        1.05363638947224        2.26103086836689
H            0.80835974026316       -0.89986079152788       -0.51767149815045
H            0.84062491549484        0.69798370941228        0.25502201005589
H            0.91665733828729       -0.79261592882648        1.25077765520465
H            5.16966555771721       -0.09133593844016        0.33791685910084
H            6.48563478406003        1.11972167849733        2.01988142170660
H            9.10845469820184        3.06483450165714        2.61997889886414
H            9.67356717763332        3.63223572515266        0.29797477669564
H            7.92997746643210        4.45411367124859       -1.22573245345509
H            5.62289247271581        4.72073884504110       -0.42259398281003
H            5.05985249143876        4.16537863651414        1.90140589989970
H            8.08780472870061        5.53866658669178        3.88543614694851
H            9.60505504004688        6.34867317284774        5.62487634309438
H           10.70664284134467        6.13148683031668        7.67084822893441
H            8.92739686311512        2.77523236270351        7.85103786426272
H            7.44529801468615        1.96813472429477        6.11153904400387
H            5.27265192670022        4.58750153910635        5.87330583674497
H            4.44889284952898        4.51635885433027        8.18547956643965
H            3.73650010679682        2.38141854691847        9.17103436745536
H            3.84199234081848        0.31842541453120        7.84069198354617
H            4.67580185060079        0.38716089612462        5.53096939786861
H            2.88879219660617        2.24655207671507        4.00170276088880
H            1.58274559533368        1.03565767208541        2.34020089091385
