41
 energy: -8.341901769824 gnorm: 0.000780032688 xtb: 6.5.0 (97a52f5)
C            1.56348534933729       -0.02647410654104       -0.21339010951523
O            2.17089131042448        0.41876210670245        0.97449716129331
C            2.85717782641969       -0.56382560222679        1.68648389550055
C            3.50820858769621       -0.17278039846938        2.86101565916223
C            4.20921706077553       -1.07266794055132        3.61878227411900
C            4.29907848547617       -2.41774394608798        3.24488746198199
C            5.05754364505938       -3.32257505267468        4.07661251296169
C            5.30023586000267       -4.64619354867128        3.88716675606017
C            4.81987526470900       -5.37864503094146        2.79810818166246
N            4.41734810917777       -5.98174286805942        1.88973571863399
C            6.10780361919447       -5.34307159183399        4.85633837810226
N            6.60932495901547       -4.79003579905017        5.92806839367401
C            7.35033454141093       -5.68111887220198        6.67458988362046
C            7.99614248564964       -5.24815399427641        7.92684819402159
C            8.96121080428582       -6.01532998225077        8.57420051683025
C            9.53878834080433       -5.57464705020778        9.73858589904267
C            9.17966514658200       -4.35073479470171       10.30958957857785
O            9.81498424791030       -3.98376463265180       11.49900024842339
C            9.39188003494260       -2.75692896155931       12.04204024510693
C            8.21481787499606       -3.58251576435386        9.65306420922548
C            7.64161777016630       -4.02543994763345        8.48712368770033
C            7.41183237746626       -6.94802501363502        6.16866085753943
S            6.52267270567583       -7.03806182952379        4.70990460541182
C            3.64567867773004       -2.80764674125987        2.07039268645130
C            2.94361275019400       -1.90904361446654        1.31174930049661
H            1.07602325441472        0.82444321303499       -0.69061018262039
H            0.81303312660066       -0.78398689144656        0.01596157921346
H            2.32143212857359       -0.42540340609311       -0.88874659121451
H            3.44584285633045        0.86057046900078        3.15283621614689
H            4.70500730012324       -0.74617004550542        4.51675957632952
H            5.49626874864668       -2.89049580649146        4.95831618775500
H            9.26308814689273       -6.95608764103885        8.14928696271955
H           10.28553905188699       -6.16552156407673       10.23862811485296
H            9.94486677763868       -2.58089554155384       12.96539450816868
H            8.32604027787524       -2.80083028798520       12.26944563623174
H            9.60353203331614       -1.94849918128299       11.34122792227207
H            7.91699387719163       -2.63473525053578       10.06235830364601
H            6.90109118041271       -3.42875255621732        7.98341453930156
H            7.92525306846468       -7.77854005647842        6.60952248679863
H            3.69501050583059       -3.83186677791828        1.75060113971897
H            2.45363983072459       -2.24362369828983        0.41572740460467
