40
 energy: -7.953648201537 gnorm: 0.000747877538 xtb: 6.5.0 (97a52f5)
C            1.23665258863517       -0.17115691599698       -0.51237979535374
O            2.37199928452414        0.18173764512896        0.24080500606512
C            3.05162531256677       -0.88849995689136        0.81316615810022
C            4.19107735185561       -0.59736386492760        1.57311440960815
C            4.91700484041016       -1.59032586888918        2.17451098584893
C            4.54579984266601       -2.93399244836214        2.04872538356327
C            5.32968522375347       -3.95574696629945        2.70265363242086
C            5.08506126540363       -5.28177069437641        2.65968724001426
C            5.88627498493783       -6.24531219294216        3.33454955143484
C            5.64507231778329       -7.57294262493266        3.28612162449665
C            6.43816990718058       -8.53927329583946        3.96858730724155
C            6.20374016663100       -9.86456357616988        3.89998368982616
C            6.96761156323431      -10.89355210976074        4.57473416822010
C            6.67157432888069      -12.23926088192433        4.33572559375245
C            7.37686513750421      -13.23908186914686        4.96061618002932
C            8.39405699582396      -12.92804715649243        5.84248561955797
N            9.14130531957153      -13.99227298809148        6.50698002920341
O            8.86904625863309      -15.16772173267902        6.22673869646946
O           10.01729986527416      -13.67639685572419        7.32388514648533
C            8.69920819455283      -11.60403549768059        6.09405052806199
C            7.99930175838018      -10.59815854652278        5.47184332491840
C            3.40798370043546       -3.22654774002145        1.28646958100710
C            2.67994990198600       -2.23279461757681        0.68570305522914
H            0.79013980925304        0.74075834613810       -0.91042085413686
H            0.50831229469018       -0.67135759065695        0.12716276311874
H            1.52803600419744       -0.81431526692818       -1.34385065947689
H            4.48147806899796        0.43337822290034        1.67375253707293
H            5.78885391114804       -1.34113545447081        2.75471822461095
H            6.17860439699228       -3.62148416517068        3.27275251792744
H            4.24699629436650       -5.64661843156108        2.09520938667538
H            6.72237011929774       -5.89157557102233        3.91201725008820
H            4.81076208081875       -7.92551602185945        2.70514656553846
H            7.26163638074549       -8.17740866575579        4.55626793466960
H            5.38246327420086      -10.19684182998668        3.28953249740065
H            5.88098670193150      -12.48849826354169        3.64908376989604
H            7.15288596140471      -14.27607356954835        4.77592007142465
H            9.49254244179031      -11.38119278028426        6.78743407245568
H            8.24559242766769       -9.57397576297057        5.68592721026048
H            3.09575786042627       -4.24867156208505        1.17050181152228
H            1.81083586145672       -2.49093087709595        0.10888778476342
