64
 energy: -13.246653989282 gnorm: 0.000718285092 xtb: 6.5.0 (97a52f5)
C            1.40446769911459       -0.84099256624370       -0.73113003981867
O            2.79547072903881       -0.63514236331032       -0.74445506355010
C            3.50054070202949       -1.32693287350044        0.23879830128171
C            4.89408058901491       -1.20134213970255        0.24053805463506
C            5.66429960100659       -1.84444958685994        1.17247811309296
C            5.08135607667519       -2.64293188442602        2.16205206893542
C            5.89884620193076       -3.34698971333419        3.16800784872423
C            7.03036587683273       -2.74665419377910        3.73528175516795
C            8.05411776034225       -3.55117510136498        4.42682008507948
C            8.68945655558777       -3.06574926014530        5.57458950229048
C            9.63444281619797       -3.81177238560456        6.22663983894720
C           10.00175506968482       -5.08183170851475        5.76732005064104
O           10.96146727355891       -5.77634361371524        6.49967056591239
C           11.25924543982418       -7.06324003360453        6.01631379230623
C            9.37981411307694       -5.56175656993625        4.60880039540333
C            8.43602182060487       -4.81309003141139        3.95647613752346
C            7.24142459615131       -1.28992700479179        3.65577574556981
C            8.52292637912284       -0.76334379819398        3.46303391950513
C            8.72507485558933        0.58832423336576        3.38144356439369
C            7.66063778892699        1.49026350418481        3.49265147202277
O            7.95591795327696        2.84705709044907        3.38421696122511
C            6.84511851284849        3.70429327159419        3.47953686683436
C            6.38007207218220        0.96552366930553        3.70302769361561
C            6.17966893741397       -0.38725280411301        3.78554410119565
C            5.48781382627231       -4.71090311746879        3.54641290351478
C            5.57686109958801       -5.16560443587264        4.86629413843946
C            5.20281270430524       -6.44095362616910        5.20245072021179
C            4.71183303393526       -7.33032350118325        4.24133746988606
C            4.34557730371881       -8.67294153839402        4.65001461784897
C            3.85143817789460       -9.67508426285532        3.88692202767733
C            3.60374530823315       -9.55994694771831        2.51953069681644
N            3.41918936322727       -9.40233481050855        1.38208950654987
C            3.57443473508615      -10.89720219728624        4.50206229038816
N            3.35356067809223      -11.90458016537482        5.04071055145136
C            4.60584345705773       -6.86631226177319        2.92644537762032
C            4.97964094607554       -5.59284127467601        2.58851169279623
C            3.68896122899529       -2.77693129425634        2.15355960892306
C            2.91675254891729       -2.13606431697891        1.22009141592198
H            0.96586400021538       -0.27388662210533       -1.55309266002390
H            0.98507970095259       -0.48340005234263        0.21002240940400
H            1.18535959210364       -1.89998215954220       -0.87423283095647
H            5.34683239228560       -0.58482520887144       -0.51539927269397
H            6.73525097236710       -1.74267480771021        1.14913059886351
H            8.41311871812293       -2.09627609317795        5.95133157115992
H           10.11336823997580       -3.43763024385908        7.11390675464691
H           11.99837970543928       -7.51610016361220        6.67838380915645
H           11.67833753688264       -6.99407482189396        5.01163397528535
H           10.35790666769907       -7.67769048040819        6.01838673981601
H            9.64405431110236       -6.52990722787262        4.22483995466312
H            7.97119086346797       -5.19554502890859        3.06449444590501
H            9.35358455987016       -1.44034390660303        3.36350544734923
H            9.71110846793362        0.98771901744117        3.22398015711106
H            7.19413408005129        4.73174799214301        3.36954041777253
H            6.37312925521810        3.59297659820311        4.45644262636383
H            6.13661660096502        3.48271779997823        2.68040374964291
H            5.54189070495797        1.63069045919007        3.80006324001537
H            5.18956034220757       -0.77371587593039        3.95388253689828
H            5.94781987147417       -4.49613951476017        5.62267247530648
H            5.28895290918461       -6.77136313809981        6.22320413888905
H            4.48865930294587       -8.89718182782862        5.69356262580607
H            4.22801089177497       -7.51521298215896        2.15955459945619
H            4.90131960013635       -5.26167685860945        1.56721938073698
H            3.22473445331688       -3.39193831327170        2.90507096369287
H            1.84967242789331       -2.25989692523839        1.24204739675296
