118
 energy: -24.570212659999 gnorm: 0.000220657596 xtb: 6.5.0 (97a52f5)
C            0.38345514938859        1.51260244048004       -0.06246934598105
O            1.65063538956596        0.93233565521805        0.12782361682835
C            2.54877487985357        1.71248885992477        0.85473649131058
C            3.82488520509623        1.18461082954313        1.08014827913859
C            4.76655647693659        1.88148512840355        1.78860829774740
C            4.48859106816676        3.15204099058822        2.30649847931996
C            5.49217837085692        3.89871570086338        3.08589553863696
C            6.85554694188021        3.82713868009897        2.75744863873502
C            7.90024030032969        4.17076485167125        3.74491283383576
C            9.04870430494623        4.86130449428111        3.35168454588622
C           10.02632213271337        5.18367967969921        4.26502210963719
C            9.88419656233510        4.82043921718444        5.58941093542719
C            8.76144488355017        4.12841465623926        5.99752953052492
C            7.78201683010258        3.80303149630665        5.08736491803262
C            7.29027520539234        3.39485849366520        1.42114558666394
C            8.40114058351481        2.55529608951288        1.25965849682801
C            8.78215466695727        2.12417003757991        0.01960097553411
C            8.10744005796525        2.52650794973436       -1.14492965870120
C            8.50101321643370        2.05587361243124       -2.45200538975514
C            9.44434918537361        0.98962614972707       -2.62071670341032
C            9.79109287415923        0.46424906824867       -3.94608687940092
C            9.23625441708500        1.01346767706075       -5.14862288303065
C            9.55243246459184        0.47337289831713       -6.44982403007755
C           10.23687877708907       -0.74458145609797       -6.59095361349800
C           10.49656109063799       -1.28641826673527       -7.81779749821065
C           10.10624000621620       -0.63171828447597       -8.99476113344232
C           10.36356988601715       -1.22580966180355      -10.31529357771776
C           10.18868493184411       -2.60324854118292      -10.52862535632375
C           10.82671304294098       -3.28770897559138      -11.66555380861282
C           10.17493090207954       -4.32976008484116      -12.33417540877217
C           10.77192195754165       -4.97853380874474      -13.38212205739506
C           12.05476404769240       -4.62784704981516      -13.81826792346874
O           12.58724949266960       -5.34132775970173      -14.89119762400997
C           13.88904191363577       -4.96068714554010      -15.26508620502097
C           12.71054875877092       -3.58921411200808      -13.14678853097303
C           12.11185315412565       -2.94049471480469      -12.09869233316793
C            9.34155018213028       -3.40021944895671       -9.62337096828729
C            9.66621306112751       -4.72394656803391       -9.30733318379090
C            8.87516477952923       -5.46322157136089       -8.46814626822396
C            7.71499456340046       -4.92474671221262       -7.89938742304482
O            6.97054823930376       -5.74401844221384       -7.05206388765696
C            5.84038535757110       -5.13005346476174       -6.48141348347004
C            7.38338906756275       -3.60397542171269       -8.22235658982597
C            8.17368863409995       -2.86702067799637       -9.06427221806998
C           10.80092535049689       -0.32959363935952      -11.40538248825554
C           10.33650524013412       -0.49402320264092      -12.71249590927116
C           10.74931408763472        0.34782006578686      -13.71970920808183
C           11.62837609005376        1.37661263477660      -13.44605368370430
C           12.09152313652551        1.56329913758905      -12.15886866709824
C           11.68179032370929        0.72325264160296      -11.14873242812253
C            9.45684141912708        0.60424670322879       -8.86734639837067
C            9.17522502996773        1.12626254347879       -7.63522340936542
C            8.33111579693064        2.11264294977341       -4.98249029031674
N            7.72409215567848        2.76749917309482       -5.95273276592229
S            6.76308319288825        3.92009935796110       -5.29725021064559
N            7.09400439712096        3.60922734454316       -3.72390423274348
C            7.95444756469672        2.61246227541265       -3.65506221860216
N           10.65795203207755       -0.52698770041302       -3.87765879471001
S           11.02731325538375       -0.80542972684570       -2.30703312882113
N           10.07373752051601        0.35344462432877       -1.65227848788512
C            7.01793713360262        3.39594131564199       -0.97377838567739
C            6.61376969771713        3.80880256061042        0.26460158903061
C            5.02667746603951        4.69073945020113        4.23716288859971
C            5.61161600961869        5.91963410119024        4.56327452115305
C            5.17136131125583        6.64875928887738        5.63550937282195
C            4.11936286484813        6.19551981065524        6.43965021497208
O            3.73756832554629        6.99865255209073        7.51347271453411
C            2.67312188812590        6.49103522949174        8.28083515223918
C            3.52668705500176        4.97106787168709        6.10899974952662
C            3.96829796363988        4.24224456299122        5.03570818385941
C            3.21054963926887        3.67762767804287        2.08490037129335
C            2.26611603040036        2.98033149126179        1.37714967279379
H           -0.23147167970706        0.81835662548852       -0.63624089539508
H            0.48178339131815        2.44375188424321       -0.62170996113878
H           -0.09198945773681        1.69174976622808        0.90260219616926
H            4.04776196864103        0.21094026548524        0.68137040364510
H            5.73729766009080        1.45018240558031        1.95982119438507
H            9.15558652806985        5.14839410042462        2.31986115550408
H           10.90382900001338        5.72171200277359        3.94614153061232
H           10.64964949059614        5.07572733316565        6.30374088286398
H            8.65117641716577        3.84368063944848        7.03092393715340
H            6.90891185647140        3.25945955264014        5.40403513942084
H            8.93483827386732        2.22779689170137        2.13506794012101
H            9.61508622441790        1.45503910511972       -0.07151155265626
H           10.55209836299714       -1.26614851416008       -5.70869889362886
H           11.01243904840073       -2.22785508796200       -7.89486812034157
H            9.18497132800355       -4.61097001867679      -12.01923380832423
H           10.26432995828609       -5.77668391949002      -13.89393509098588
H           14.20738060094768       -5.58924260409434      -16.09746052672918
H           14.57377170359867       -5.10801575932847      -14.42900523353143
H           13.89369747744254       -3.91853061939185      -15.58656849063628
H           13.69729091523868       -3.29565310133842      -13.45468421562021
H           12.63442019688969       -2.15123401938863      -11.58682888641228
H           10.56008242482713       -5.15411115602588       -9.72465587432932
H            9.13267247214037       -6.47862097380609       -8.22471284429327
H            5.35042110282915       -5.84986922290687       -5.82485923501139
H            5.14231837125580       -4.83421619394605       -7.26548312417789
H            6.14612684082415       -4.26460035989493       -5.89204529821786
H            6.49754488788420       -3.15968845372826       -7.80692627784933
H            7.89761862213229       -1.85612517614740       -9.30884864859349
H            9.64685869433331       -1.29255419851656      -12.92415586086910
H           10.38588270614552        0.20354292425929      -14.72382360559796
H           11.95128034174259        2.03458057403242      -14.23610328157475
H           12.77575847380671        2.36781172284822      -11.94494451624432
H           12.04586460052723        0.86453269488946      -10.14575130402095
H            9.15112343991421        1.12342723500674       -9.75918138020608
H            8.64489081180165        2.05575729155048       -7.56562090837050
H            6.48548668406656        3.73412594431093       -1.84097857164386
H            5.76904272766245        4.46794544225109        0.36591472141674
H            6.41720966248333        6.29044626115972        3.95390524191775
H            5.62816890912853        7.59034665666679        5.88312301375309
H            2.45888601352174        7.19641689116267        9.08444292229044
H            2.95408922595224        5.53198938082210        8.71764750024439
H            1.78404741471404        6.38384803394729        7.65827819536849
H            2.71558402423838        4.59436773727849        6.70471335839273
H            3.50856050761632        3.29764173341287        4.80146542677965
H            2.97883400762726        4.65396672634639        2.47419457682254
H            1.29552277630803        3.41462797353531        1.22231805533707
