60
 energy: -11.491401176037 gnorm: 0.000411899969 xtb: 6.5.0 (97a52f5)
C            0.62831686878412        0.51470902433497        0.20149042986094
O            2.02072860194356        0.44538238261150        0.38626553674101
C            2.72373328856583        1.57748842793875       -0.01556271834499
C            4.11888256171361        1.48033987298793       -0.08014290862369
C            4.88668325975822        2.54393358028831       -0.47078866599641
C            4.30106949601520        3.76718250855452       -0.81690537085021
C            5.12084475826375        4.91813667065216       -1.24553829251717
C            6.19622843017909        4.74596599516493       -2.12359162580254
C            7.23886117487346        5.78518081306113       -2.26772785745430
C            7.72973166668082        6.12858703989926       -3.52904220757532
C            8.70723572473694        7.08670264829306       -3.66880961703203
C            9.22011860368767        7.72043223750551       -2.55502661179520
C            8.75469129827213        7.39014790898981       -1.29823223989433
C            7.77831043511300        6.43158924017466       -1.15352345708110
C            6.33560382263900        3.51929370589585       -2.93324675773672
C            7.61758437335781        2.99214466075426       -3.16053495725555
C            7.89982226930945        1.83328315808101       -3.84202108486384
C            6.96716238451631        1.00336596552752       -4.36204059121944
C            7.19988860518667       -0.19822097543028       -5.03217334713228
C            6.22935092868746       -0.98123914608786       -5.43922984715602
C            4.90514655559141       -0.75716372899900       -5.27161440266449
C            3.77124230045828       -0.50789744668114       -5.09017064406758
N            4.27796908959965        6.21227085297371       -4.83617646684829
C            9.97890045211685        0.18436198630913       -4.76129985954314
N            0.30140254414830       -4.56518804149733       -7.89427723304959
C            5.23790564371902        2.93354882058811       -3.47304085377952
C            4.77665534146286        6.24455818188818       -0.70311657770629
C            4.88139875865375        7.40563645248929       -1.47679954052772
C            4.55632217907689        8.63070268802940       -0.96049202628696
C            4.10180783688648        8.76608138239561        0.35664741057683
O            3.80212939259677       10.04993937675093        0.80172647014735
C            3.35422020545240       10.12754190580818        2.13268372745630
C            3.98166512718210        7.60331864753370        1.12786635951157
C            4.30702743809696        6.37804188038272        0.60827318075651
C            2.90781092938243        3.87005598237875       -0.73564991481448
C            2.13723372140016        2.80394978871232       -0.35244792645183
H            0.20471594770114       -0.46200261006540        0.43980002420724
H            0.40763043409466        0.75321569017236       -0.84030051320213
H            0.20051786259361        1.26211898583435        0.87075480946446
H            4.57120267574636        0.53748894150016        0.17230094738083
H            5.95741238680371        2.44719344376989       -0.51873980971852
H            7.32522115491665        5.63675411637971       -4.39695461084303
H            9.07305441699505        7.34204293662507       -4.64971259944119
H            9.98551759429294        8.47081553999784       -2.66651076372979
H            9.15796189992926        7.88266133684475       -0.42882874033236
H            7.42018299743242        6.16745319026837       -0.17364657580234
H            8.44539993520807        3.54271724822591       -2.74543556078686
H            8.92783937732490        1.53285274579518       -3.96848331707765
H            8.22662977894316       -0.48617773003088       -5.19671745413922
H           11.63366783175248       -0.50691553161110       -5.20386490244653
H            4.26293622746737        3.30723915555458       -3.37033100209341
H            5.21647755646802        7.32412046482055       -2.49575546647541
H            4.64163836689153        9.51959713619683       -1.56000975133101
H            3.15803505420346       11.17450213435243        2.36752701961525
H            4.12531162872576        9.75155426935135        2.80633787494942
H            2.43033245024899        9.55898413277761        2.24645100005776
H            3.63041163644624        7.67084271894396        2.14108893898790
H            4.21432059564151        5.49452252063664        1.21591276955206
H            2.44300300073138        4.80429398112261       -0.99981580734730
H            1.06910312347479        2.91182073299106       -0.30665601644961
