59
 energy: -12.159909086839 gnorm: 0.000620807457 xtb: 6.5.0 (97a52f5)
C            0.46402154810777        0.20024883025941        0.54700869976016
O            1.78113750295190       -0.23997200712664        0.77027006030357
C            2.61154021782972        0.69081098539702        1.39106796968961
C            3.95548525793590        0.34044075354933        1.56590991253300
C            4.84156771729139        1.19847570614890        2.16177717341352
C            4.42935710095751        2.45570266880366        2.61228707661974
C            5.38088191309043        3.38561911767186        3.26143749167938
C            6.57128900370678        3.72903978565397        2.67789986576863
C            7.00113061005426        3.45889935833587        1.32267764346803
C            8.36490429232099        3.49592131826413        1.00845220270131
C            8.80466414558795        3.26637960744781       -0.27000130851114
C            7.90882624588389        3.00110143930590       -1.31280198282010
C            8.43768544312769        2.76000801865395       -2.64071254841724
C            7.75660930777749        2.52747400540145       -3.79353260218817
C            6.36120691345250        2.52434258079593       -3.83611373996811
N            5.19891842480578        2.53099921298447       -3.87190142318104
C            8.45221520682800        2.29949816924152       -5.07347050503590
C            7.73986800612565        2.37761049335438       -6.27167470486166
C            8.35764082853810        2.17596280338142       -7.48461947687291
C            9.70506156241480        1.88439495805609       -7.53269564511295
C           10.42840820011406        1.78993374742250       -6.36133951520748
C            9.81266778103549        1.99264113834064       -5.14596176929183
C            6.54475154132858        2.98694402059954       -1.00016931473391
C            6.10417496375419        3.21223336720807        0.27686498550654
C            5.05358118638840        3.89148670813546        4.60587310609120
C            5.55633519200251        5.10824865664475        5.07563980661023
C            5.23546460992361        5.56746185141301        6.32637030050734
C            4.39579754258778        4.83873465451091        7.17643836679019
O            4.12287031568860        5.38116434026859        8.43049172797246
C            3.27182276260315        4.60402285703329        9.23792055366981
C            3.88942680621790        3.62216910605992        6.70443288619605
C            4.21046414539107        3.16559839550405        5.45209791367329
C            3.08547451728519        2.80314039281948        2.45157475626805
C            2.19813322269250        1.94638943348509        1.85312686089904
H           -0.07757124380349       -0.58565572215732        0.01937356800038
H            0.47398906777289        1.09945188060162       -0.07044332152935
H           -0.03047850656475        0.39297791783484        1.49987394943475
H            4.27685896841850       -0.62331700608152        1.21297339662216
H            5.87211357770888        0.91402253703484        2.28661785845872
H            7.28029002812574        4.25840071945069        3.29013584974008
H            9.07390200948704        3.69918538413621        1.79267348671336
H            9.85940833307492        3.29065626383760       -0.48406706312164
H            9.50957604775083        2.79285286282913       -2.70618047693831
H            6.68703541984094        2.59821817629939       -6.23501495536848
H            7.78812678699350        2.24443081981057       -8.39710541722663
H           10.19005761408543        1.72547177467189       -8.48187157360314
H           11.47925065531231        1.55256501208170       -6.39806080210733
H           10.38733671921375        1.88749988590832       -4.24335402985113
H            5.82081662650894        2.80241432483708       -1.77078931964864
H            5.04828254509131        3.21948328666794        0.47898804465222
H            6.18240639155649        5.70368991995598        4.43456159345811
H            5.62115514750231        6.50660949911067        6.68158505722610
H            3.13268614394760        5.11984921293803       10.18866515164403
H            3.72559905668554        3.63024456179954        9.42686525138505
H            2.30195125139892        4.48849605696973        8.75227235559966
H            3.24072467309243        3.03674989269653        7.32997941635458
H            3.81674332458485        2.22508039293793        5.10737778005353
H            2.75609268461484        3.76617601044042        2.80218613057711
H            1.17128264181539        2.24273986036321        1.74163324555798
