59
 energy: -11.075817859671 gnorm: 0.005302576338 xtb: 6.5.0 (97a52f5)
C            0.83900739942172        0.61574249566495       -0.84539169519189
O            2.23227853596171        0.68711382764255       -0.66803231095900
C            2.96629365714494       -0.21539569460091       -1.43514953471582
C            4.35890702277315       -0.19499359228566       -1.29599494046771
C            5.15587692827506       -1.05394745537773       -2.00511920047342
C            4.60039047010207       -1.98659051423250       -2.88493452427276
C            5.45831921361640       -2.92592440986481       -3.64290681728644
C            6.37485502593896       -3.73117188741666       -3.02096000740662
C            6.53584395268564       -3.95588760710723       -1.60046638983997
C            7.75209389230274       -4.45422631141035       -1.11504685902819
C            7.94698640255754       -4.67030014406191        0.22529769208599
C            6.93141525581810       -4.40855062777339        1.15122368513920
C            7.15590032707452       -4.60879406861581        2.56219570071707
C            6.26308229791571       -4.35109053230389        3.49375347998760
C            6.38964263941160       -4.48523444226463        4.83329226893117
C            6.51376598830249       -4.61222268095477        6.00007423802192
C            9.42016748251291       -8.09949213774061        6.54286579947661
C            9.11933693424640       -7.14235372450707        7.35165174301618
C            9.56778582657496       -6.93929170960829        8.58652894870683
N           10.37144499148617       -7.62557615683075        9.28049522145743
C            7.17206554118437       -0.43595921988448        1.33338928743412
C            7.83810113776697       -0.96125797734221        0.35285314343649
C            5.70569267210487       -3.94169248127480        0.66815420299270
C            5.51108376178458       -3.72930620146784       -0.67210518040761
C            5.36422187251842       -2.92022204390793       -5.11290048624058
C            5.70849713910393       -4.03821948970141       -5.87806099592036
C            5.61186693834390       -4.01356970915540       -7.24511396699902
C            5.16522331725626       -2.87305882244931       -7.92260603666986
O            5.08997902536829       -2.93624342186863       -9.31239531660147
C            4.64694470866396       -1.75408891198158       -9.93379543471272
C            4.82145165458242       -1.75346071699631       -7.15601862300202
C            4.91744587876632       -1.78110719241449       -5.78867867905197
C            3.21154215372729       -1.99906614049102       -3.03903166052456
C            2.41253380511794       -1.13838902267769       -2.33128021352938
H            0.37012614916962        1.35472032212856       -0.19437736789325
H            0.47970061623808       -0.37676422380297       -0.57033197924687
H            0.58376758366847        0.84343108808097       -1.88127745349436
H            4.78954166701965        0.51309587158717       -0.61071341140540
H            6.22464641193125       -1.02758564818506       -1.88456415619080
H            7.07605036039416       -4.24920331723425       -3.65141225602621
H            8.54735854505332       -4.65587568720501       -1.81210280009175
H            8.89354067077194       -5.04001975464840        0.58021718174199
H            8.12047378305823       -4.97512336796766        2.86803937850259
H            6.21212600759460       -2.94862269060025        6.85536494502009
H            7.52670131979171       -5.37870208703655        6.80397871411616
H            4.76496129741974       -5.27048578871242        6.56068671222682
H            6.47535800803814       -0.96092252527374        1.92088335445243
H            7.73589138505596       -1.96281899470641        0.04783472505465
H            4.90902890481968       -3.75019453098793        1.36629649742746
H            4.55003707914541       -3.39854077970285       -1.02182376006227
H            6.03201707904350       -4.93742185333740       -5.38375549791275
H            5.87351707437846       -4.87814597001624       -7.82897754603904
H            4.63587879373824       -1.91435841459857      -11.01250307106159
H            5.33063988863772       -0.93540656015511       -9.70527441324042
H            3.63585116603589       -1.51555990039403       -9.60081258452385
H            4.47968280268107       -0.85806072031781       -7.64234845071431
H            4.65662983615359       -0.90817679356829       -5.21564906244693
H            2.77399540534179       -2.70773312729707       -3.72123385423919
H            1.34707431948838       -1.17472583085361       -2.46625037286565
