45
 energy: -9.200981612672 gnorm: 0.000436797019 xtb: 6.5.0 (97a52f5)
C            0.98138825461522        0.09572118692390        0.20485375297995
O            2.37786791766021        0.17589092586481        0.35319436506580
C            2.98471712627777        1.21094552775853       -0.35646813965741
C            4.37786797475253        1.31509984004912       -0.27735486131356
C            5.05550364830709        2.30149424680869       -0.94457958945300
C            4.37310836901573        3.23146772521713       -1.73267250891442
C            5.09478830290832        4.30789928809719       -2.44810724494337
C            6.15660405741703        4.05047945960777       -3.26919297107680
C            6.63354307383013        2.75840156057301       -3.72544603268656
C            7.95396465188084        2.63003455261185       -4.16865938111151
C            8.43626372447255        1.42570951519142       -4.62069692650425
C            7.61808167686761        0.30187820605705       -4.65989261640233
C            8.11358331436645       -0.92669787071535       -5.11605636288738
N            8.52762803930772       -1.94551144095035       -5.49211853799991
C            6.29746051990249        0.42420644641781       -4.24203442085921
C            5.81330750783243        1.62740382819933       -3.79029848254761
C            4.68142277720546        5.70156479591450       -2.20205896059997
C            4.87173360314660        6.70446719377060       -3.15602638496963
C            4.47335670478907        7.99327563688948       -2.91227004507775
C            3.86277741269408        8.35008519000572       -1.70526315994664
O            3.48714841551277        9.68289906357569       -1.54441364824933
C            2.86559959166945        9.97800928946412       -0.31751411378149
C            3.67072602554077        7.34541557398494       -0.75091272281363
C            4.06922433236075        6.05671745282525       -0.99741590239436
C            2.98150336199715        3.13606395045550       -1.80589422673616
C            2.30213261199159        2.14973849535491       -1.13834561673216
H            0.62146719755774       -0.75161011463205        0.78963217733034
H            0.72925132431919       -0.06445198756619       -0.84418002228844
H            0.51451531619982        1.00755206690983        0.57918815714606
H            4.90588029830267        0.59480195503264        0.32181007794273
H            6.12720918170541        2.36797268621064       -0.87140559397532
H            6.72042340462629        4.89817049600724       -3.61699998436879
H            8.59902513328998        3.49142750501978       -4.14298135287930
H            9.45700787851897        1.33588718815219       -4.95116884402286
H            5.65868485501595       -0.44171367877270       -4.27924262203981
H            4.78297086138143        1.70744257201154       -3.49438507752074
H            5.31345310443812        6.45436810355132       -4.10453412566098
H            4.61785734276098        8.76166621115283       -3.65085085509568
H            2.61150880182923       11.03855826600091       -0.30686035093057
H            3.55045476362685        9.76967687718703        0.50538694313674
H            1.95057273522258        9.39336006247105       -0.21481094438785
H            3.20592270902256        7.58433300163403        0.18798646417607
H            3.91934409088795        5.29745450780652       -0.24956408989791
H            2.44556686646830        3.85237597834434       -2.40454524123364
H            1.23174113850380        2.09910866352552       -1.21760997581958
