46
 energy: -9.148653619837 gnorm: 0.000484712683 xtb: 6.5.0 (97a52f5)
C            0.91748876910973        0.18855213034044        0.23204169607052
O            2.31437707174239        0.24468424420864        0.38971617503338
C            2.93914152609134        1.28811926719950       -0.28967309692309
C            4.33115776836397        1.38571564452210       -0.18146521298107
C            5.02503632636322        2.38167007387773       -0.81669239386825
C            4.36113650722592        3.32889317001634       -1.60050828666678
C            5.09880610431508        4.41918279718826       -2.27743593247016
C            6.17636976007932        4.17783118250180       -3.08439989161635
C            6.65411510438446        2.89882898987878       -3.57015849688493
C            7.97545676581994        2.78410538364035       -4.01857602428488
C            8.45973750589328        1.59545064044587       -4.50555164585753
C            7.63873285389727        0.47316943762183       -4.57459984898927
C            8.12623331145479       -0.80051277258334       -5.08562828051604
O            7.47835069079866       -1.81072071161470       -5.14669971409996
C            6.32079391375773        0.58041414392546       -4.15007749589924
C            5.83448651219644        1.76809682592456       -3.66437332146449
C            4.68228566053577        5.80704418231181       -2.00812742897179
C            4.90874840937550        6.83536379053518       -2.92696334415367
C            4.50539980374856        8.11829636302716       -2.66229750866775
C            3.85316470726235        8.44449952044367       -1.46823823550267
O            3.47718609517783        9.77327200544925       -1.28220248379861
C            2.82388055036607       10.03739646307337       -0.06471437640330
C            3.62342211867333        7.41413100589922       -0.54989627665287
C            4.02725014573559        6.13158155194811       -0.81714858331897
C            2.97091123756549        3.23881296919816       -1.70416438042708
C            2.27531528286512        2.24324433127063       -1.06847363278729
H            0.54200052572399       -0.66692604018609        0.79472725084760
H            0.66771267659563        0.05618963792161       -0.82139914640475
H            0.46254027570149        1.09861056782319        0.62496569877879
H            4.84507924807094        0.65344785044985        0.41542998045141
H            6.09513410837470        2.44418482633680       -0.72029036974323
H            6.75065369307865        5.03187627352111       -3.39775785550624
H            8.61882041474671        3.64576779215942       -3.96952170162625
H            9.48015315946346        1.52078844161350       -4.83965715291022
H            9.14460971483170       -0.85702728629765       -5.44347534602987
H            5.69030811164113       -0.29018236305137       -4.21483880408378
H            4.80374940540696        1.83754695740351       -3.36774038892173
H            5.38274976674776        6.61013252481256       -3.86601749339354
H            4.67885064011339        8.90566884145419       -3.37415512256409
H            2.57828359076100       11.09935744850346       -0.02872379413800
H            3.48355296252171        9.79806972934881        0.77025657441582
H            1.90177033470391        9.45795819073716       -0.00495070938100
H            3.12404877495743        7.62813773520911        0.37717579835218
H            3.84697020346475        5.35258300458103       -0.09685343958932
H            2.44939820662973        3.96723037964415       -2.30093912198785
H            1.20676968366577        2.19728285776045       -1.17164683447050
