53
 energy: -11.442361547839 gnorm: 0.000611776463 xtb: 6.5.0 (97a52f5)
C            1.32022094339027       -0.93287456636143        2.33245580291602
O            1.79696803274266       -2.14532652179213        2.86314633531853
C            2.18494556464971       -3.08576127699961        1.91324687607425
C            2.65915646793883       -4.31792322183792        2.38040491776880
C            3.04785900443060       -5.30420872831972        1.51269976808843
C            2.97680621349334       -5.10543530510132        0.13579862283385
C            3.36103090569688       -6.15370740313359       -0.82814961134945
O            3.50032160929683       -5.88312341697430       -2.00584447984163
C            3.58803513046774       -7.54377097087759       -0.34313318663079
C            4.83382747636515       -8.12684969044495       -0.49876450137773
C            5.92488566166706       -7.37722105856430       -1.18203288009172
C            5.07554551088386       -9.43195842727995        0.00701502390483
C            6.35635868502539      -10.05074745307958       -0.10326311099521
C            6.58678575820131      -11.29130786561105        0.37967168356707
C            5.55612396335085      -12.03442430660485        1.02254281221400
C            5.78614561748564      -13.32065820437702        1.52215045717023
C            4.77919258301494      -14.01814097960253        2.13713416732249
C            3.51968749701718      -13.46097295217198        2.27420920180289
C            3.23387391208185      -12.18696157519757        1.79752761612803
C            1.91031539390296      -11.58046137510114        1.92813499038983
C            0.84797002655502      -12.22986973073414        2.54551070368841
C           -0.39847889521766      -11.63660553316971        2.65232354849093
C           -0.61895486971218      -10.38287346740026        2.14572585970713
C            0.41443065322740       -9.68063347587413        1.51486738170195
C            0.20808055006093       -8.37988394052632        0.97598595571845
C            1.21614905824448       -7.70780827129627        0.37708757911043
C            2.51999699344562       -8.26484257633563        0.26825696990119
C            2.75081821455935       -9.55715358365471        0.76986759116413
C            1.69163110555690      -10.27844883238586        1.40599759914050
C            4.03698645160311      -10.14316767640540        0.64388275992503
C            4.27187190077367      -11.45768842062458        1.15779346649723
C            2.52199353541837       -3.88032186534412       -0.33643014524693
C            2.13265421244274       -2.88898695715141        0.52741323338394
H            1.03245308248826       -0.28264510475034        3.15921032618631
H            0.44569187336377       -1.11844951044206        1.70825007130243
H            2.10749382012107       -0.44575877449658        1.75668658787095
H            2.70600229525124       -4.47274788890179        3.44358616171398
H            3.40723323058290       -6.24588490222470        1.88951030479226
H            5.55013717694481       -6.46262611111615       -1.64187639013702
H            6.36935138592320       -7.97421933482502       -1.97874975778850
H            6.70890611884954       -7.09928748218125       -0.47705267078268
H            7.15741457195965       -9.51167418333600       -0.57685201370354
H            7.56147837766847      -11.73791464362550        0.28488074144359
H            6.76438912211077      -13.75710492993986        1.41686704855315
H            4.96912495886550      -15.00864014081720        2.51694796957341
H            2.75214843071840      -14.03454913637029        2.76029026880539
H            0.98668856462015      -13.21432929235189        2.95285032640191
H           -1.20224288346033      -12.16619037976481        3.13716587997137
H           -1.58958712053737       -9.92515785607803        2.22863955363086
H           -0.76978448818426       -7.93692640086186        1.05190129460191
H            1.03753890864038       -6.72970307117603       -0.03331145636235
H            2.48007164877261       -3.73026456948421       -1.40193923064491
H            1.78288605723380       -1.95249665689196        0.13351197620422
