65
 energy: -13.220034806053 gnorm: 0.000354100604 xtb: 6.5.0 (97a52f5)
C           -2.38532059685933        2.99925478956582       -1.52117594079907
O           -1.14628857854505        2.38357732792696       -1.77775915393154
C           -0.14234463944490        3.24869085437662       -2.21659015965836
C            1.10483063985881        2.68997340779679       -2.51654567414861
C            2.14416373509201        3.46748098949071       -2.95676645506427
C            1.98818275765113        4.84598538968112       -3.11689040650341
C            3.11570942523899        5.68168725214314       -3.59096184482712
C            4.32234473895821        5.75805217669531       -2.94628313394135
C            4.71920664313354        5.26844204607437       -1.64575930592608
C            3.78793657245960        4.90215624277117       -0.66661120535100
C            4.18588091322018        4.46992470491974        0.57171894544142
C            5.54385995981346        4.38723224739280        0.90337787296563
O            6.03676775265278        3.95664327228254        2.13433995416120
C            5.05040592740028        3.58854407684694        3.06815404752058
C            6.47569549445925        4.76700642131257       -0.06976988457448
C            6.07543861311658        5.19813903475200       -1.30633489150979
Si           5.43412857770215        6.71652510543122       -4.05642903379391
C            6.09947484607388        8.21000056875441       -3.16805330751124
C            7.45623355991851        8.41170846578456       -3.03410126125037
C            7.92746640620316        9.50098058835729       -2.32843472043275
C            7.03709680915512       10.38618429222763       -1.75427582169341
C            5.67796639914211       10.18211627573643       -1.88550574052281
C            5.21066511044165        9.09234141771931       -2.59370172873338
C            6.71682662516731        5.61951964769371       -4.84251788253500
C            7.65406817818619        6.16346875882689       -5.69390715279432
C            8.59711095679445        5.35200644326879       -6.29358113207976
C            8.59672400192908        3.99431774289375       -6.04330887196726
C            7.65290246202759        3.44812028164101       -5.19682520171984
C            6.71253046279404        4.26295008502299       -4.59850923132861
C            4.14341762808054        7.15385755114337       -5.28138705326870
C            4.15250578466684        7.89919081379386       -6.43492704966273
C            3.00680352676777        7.96401420309501       -7.20581895313903
C            1.86841092524168        7.27887684532955       -6.81835391004940
C            1.86034528861755        6.52906788769405       -5.66094376580518
C            3.00628957886509        6.45921936344179       -4.86586182749806
C            0.74594321742258        5.40870992006301       -2.81650181618491
C           -0.29511287838286        4.63076427125863       -2.37701383542238
H           -3.09280230207374        2.23380837427016       -1.20060262913013
H           -2.76183025427973        3.47000356748029       -2.43009894011303
H           -2.27718558078534        3.73598083092480       -0.72438216123112
H            1.22762701310057        1.62862118045786       -2.39375514264316
H            3.09792813635786        3.02318043016916       -3.18426295241342
H            2.73926366564841        4.97721139453041       -0.88970148075024
H            3.44320481361385        4.19411661841912        1.29783807833436
H            4.41181861117453        4.44402421232517        3.29135750572099
H            5.54445406802732        3.26794403467925        3.98592732459041
H            4.45893128248688        2.75978694778169        2.67724408053201
H            7.52022448896056        4.71339406236280        0.18074927128440
H            6.80892381170548        5.49268501123371       -2.03602631657780
H            8.14102898752320        7.70982803713567       -3.47806696693667
H            8.98861762732965        9.65818651585192       -2.22451658100902
H            7.40357060119204       11.23535136511640       -1.20085017761486
H            4.98211662487609       10.86982557454047       -1.43350005913959
H            4.15320038484596        8.91576374816364       -2.69826197138777
H            7.63773194662468        7.22258367303908       -5.88924681541507
H            9.33145163651363        5.77894161453530       -6.95686909059294
H            9.33226489776851        3.36007439754954       -6.51059458247835
H            7.64910890449917        2.38797469306586       -5.00298987839974
H            5.96850702333659        3.84814037067185       -3.94007965664442
H            5.04951481551992        8.41770169863704       -6.72670003603226
H            3.00237861508710        8.54613783124544       -8.11269853562111
H            0.98061035107423        7.33076980622534       -7.42711989660488
H            0.97786375799508        5.99011027610259       -5.36554954918916
H            0.61949990341712        6.47228754663411       -2.92555755631893
H           -1.23963065657346        5.09148542371357       -2.15241875073783
