57
 energy: -12.278785370439 gnorm: 0.000725622748 xtb: 6.5.0 (97a52f5)
C            0.92011048691456       -0.63832671277707        0.49997671506222
O            2.10250843980337       -0.15452008350719       -0.08783499296804
C            2.57911225787311        1.04009084816960        0.44800157558051
C            3.72464814852357        1.59550852917162       -0.13144157130200
C            4.26109896739980        2.76457180747982        0.33983713769999
C            3.69194788317489        3.43287989755665        1.42216637166468
C            4.29154878518483        4.70084361475347        1.86406135063082
C            4.22469188357594        5.15665802108529        3.18370009005708
C            3.65462642095666        4.31948055973671        4.26445656452803
C            2.53491926570909        4.73646184404503        4.99052125098706
C            1.99748591528275        3.94085171011527        5.96796096156439
C            2.54908209427944        2.69333521573095        6.27369127122422
O            1.92835609771041        1.94374778319683        7.27578178045299
C            2.52450002996089        0.69756733229769        7.54012970566222
C            3.67589223927112        2.28189905452050        5.55588896143526
C            4.21321967560228        3.07591799257455        4.57625082299399
C            4.79294410334892        6.44108450646167        3.50188075884756
C            4.78930842122414        6.96226131319667        4.80061990374843
C            5.35790815281870        8.18440659732896        5.07730730398493
C            5.95255101141791        8.91816805099182        4.07263249104114
C            5.98764696340312        8.43878268598568        2.77021186350129
C            6.65697875679151        9.18892099273690        1.72035194760377
C            6.59572693801547        8.67071238888769        0.35953036564286
C            6.04222922500559        7.38040689249835        0.14894872951328
C            5.46118864105996        6.64865760367219        1.15433984742208
C            5.40587910257288        7.18753982741424        2.48238299644831
O            4.92677974578771        5.40655620509022        0.86705912078423
N            6.98932424388430        9.36966417721011       -0.66843846510362
C            7.35156386824370       10.70073647526568       -0.38251608876466
C            6.22737280859232       11.57783382516898       -0.44502093013050
N            5.30880284210087       12.28140813832548       -0.47162449342000
C            8.09622579808286       10.80569394032402        0.98433119520733
C            9.40542460041554       10.24006282274236        0.92871349302087
N           10.45874026537699        9.76324593278288        0.87952336174494
N            7.33315199714445       10.24884043321308        2.03067262409026
C            2.53373482088091        2.89283215633235        1.98649425252409
C            1.99307325573009        1.72405182381550        1.51841877492048
H            0.63416432599531       -1.55788228372178       -0.01218420542938
H            0.12165052864919        0.09561389664532        0.38312741210041
H            1.09279287904792       -0.85777168918775        1.55433264993985
H            4.17171572828448        1.08138818133113       -0.96361146298002
H            5.13244687245972        3.19385033669860       -0.12473889793813
H            2.08735173519221        5.68682042301275        4.75599417740230
H            1.13147708148666        4.25995551087111        6.51999117110627
H            1.95258178376878        0.20379714016412        8.32670003031625
H            3.54939917965944        0.84272769045498        7.88389625039865
H            2.50206360740520        0.07830780764772        6.64255055379568
H            4.12738553040114        1.33134281446717        5.77228068927668
H            5.07902993167048        2.74820957892517        4.02704510881866
H            4.34526032410365        6.38938095995759        5.59464927518231
H            5.34423410701163        8.56803953622141        6.08406872374629
H            6.40916229328710        9.86968656535098        4.28368802847023
H            6.04326746140033        6.97823438389772       -0.84627440671436
H            8.05590104058986       11.00128344676296       -1.17845010574387
H            8.20580243458990       11.87748604207264        1.22804245565488
H            2.05259054170421        3.41383061710543        2.79412515554753
H            1.10591846012351        1.33101483770496        1.97990034917751
