61
 energy: -12.535824232150 gnorm: 0.000595568133 xtb: 6.5.0 (97a52f5)
C            1.07958796307056       -0.31971687323495       -1.28271700214364
O            2.40427985640949       -0.02516317602926       -0.91340031787020
C            2.89588982551077       -0.77739573064365        0.15204274538843
C            4.21497183493384       -0.54318563219637        0.55486118950468
C            4.77914698432658       -1.25293035659585        1.58240896743020
C            4.06128681294430       -2.24120593275736        2.25332250994021
C            4.71056073869465       -2.96118395019422        3.35932260823186
C            4.39047543298155       -4.27883469469480        3.69900861020211
C            3.45051744063859       -5.08375954533479        2.88510194190146
C            2.26787409428772       -5.58861446298467        3.43421079936435
C            1.38964191279613       -6.30891253378493        2.66769223617077
C            1.64478389592741       -6.56327493065889        1.31688784679085
O            0.68855050664948       -7.29642967316597        0.60865102053357
C            0.99185940842201       -7.50750252329978       -0.74840191407288
C            2.83153704982423       -6.06563149760232        0.76994538083153
C            3.71108591612457       -5.34488346022613        1.53612071181030
C            5.03769168468647       -4.87578372463684        4.83884505237355
C            4.78160654802330       -6.19085576175042        5.24344377110784
C            5.40703546831377       -6.73000379403012        6.34442707705860
C            6.30813280659449       -5.97874347994876        7.06968677628394
C            6.61263593185125       -4.67726223847092        6.69290085358400
C            7.55227704222815       -3.87844885272072        7.46576777021472
C            7.92306204143619       -2.56703310466900        6.95101035098687
C            7.22862889616731       -2.06234513288325        5.81904171917922
C            6.28701896008470       -2.79041950948774        5.13602132183719
C            5.97558859362528       -4.12272988543115        5.56412276030356
O            5.66366515906461       -2.23142103736543        4.03472916589352
N            8.89637521064865       -1.86434882249609        7.46099390182807
C            9.62546365296097       -2.47127614750052        8.50094299214869
C           10.25793627147915       -1.41788677453703        9.38165733094893
C            9.60028919368668       -0.93209505810871       10.43117135396232
Br          10.38881809630953        0.43915075175935       11.45008743996058
C            8.29906034952227       -1.45093453422155       10.79339276634143
Br           7.17791800075906       -0.49246563239613       11.96046490565897
C            7.86838884780091       -2.60629682542139       10.29467437988697
C            8.73304195010960       -3.41760557805444        9.36752959353991
N            7.98610174689642       -4.32878500749530        8.59913124982889
C            2.73325069235876       -2.45366077986770        1.87493528415156
C            2.16524226988456       -1.74753796986819        0.84686688656653
H            0.80768882706501        0.31546133760545       -2.12637396713957
H            0.40701746179431       -0.10950700304915       -0.45025134840768
H            1.00291112401757       -1.36462512744992       -1.58581365621063
H            4.77720003781221        0.21237523075486        0.03558658656261
H            5.79143258202678       -1.05712558330025        1.89255998403441
H            2.04646466021740       -5.38589099051100        4.46787885767272
H            0.47743768184387       -6.69016925666006        3.09076390061163
H            0.17663914142193       -8.07359030885242       -1.20048371601390
H            1.91430244396684       -8.08262588601032       -0.83671114699331
H            1.08473941593205       -6.54950103090939       -1.26146983519429
H            3.05846112732605       -6.24705896160317       -0.26439865413756
H            4.61938803939095       -4.96207397386928        1.10351947074898
H            4.08832383449207       -6.78803893202630        4.67885535023197
H            5.19098593174386       -7.74246111532297        6.64297567709973
H            6.79280947449549       -6.39108308499270        7.93732996813254
H            7.47226564731687       -1.07842645288557        5.46666989697251
H           10.41380519481969       -3.07635594597573        8.02297722797168
H           11.21633798453356       -1.00283989758781        9.11674098048622
H            6.88476218903287       -2.96805064148140       10.54015309330199
H            9.40401030460455       -4.02489026002614        9.99993110157353
H            2.14553155445238       -3.17748294228999        2.41000389695249
H            1.14398625366204       -1.94170530052488        0.57501429409928
