51
 energy: -10.525170942847 gnorm: 0.000438288405 xtb: 6.5.0 (97a52f5)
C            1.70037267517859        1.03668110124380        0.33156295173379
O            2.52267601229645       -0.04358269402417       -0.04473953382080
C            3.16607251925902        0.10925002144586       -1.25876900701822
C            3.05709916140813        1.22802606695158       -2.07905773669051
C            3.71165899001091        1.29924379927270       -3.29078428385929
C            4.50543186789314        0.26210249380585       -3.76909995107774
C            5.10566792391296        0.37355815184227       -5.09683750659656
C            5.27608713665467       -0.61717878659387       -6.00915019370693
C            5.89996774828509       -0.11317086244343       -7.21009186591578
C            6.24407230894740       -0.97582602370051       -8.36203384725579
C            5.24256141599953       -1.58305299244108       -9.11754050908216
C            5.56176003435479       -2.37645353464723      -10.19724198447758
C            6.88376901078105       -2.58252768083940      -10.53843292224841
C            7.88846231223005       -1.99497344928600       -9.79543640992974
C            7.57406082127840       -1.19980900113285       -8.71555193155502
C            6.12420629669185        1.23711753844069       -7.07893079892095
C            6.68563402422452        2.16399970269040       -8.05424221868382
C            6.81000794373805        1.83352143981155       -9.40714682480901
C            7.33073690249435        2.72826240235293      -10.31355499413758
C            7.73833146297312        3.97958472754171       -9.89638852012943
C            7.61718525510105        4.33363123152562       -8.56738581247477
C            7.09530414642689        3.44145119127813       -7.65804889233236
C            5.62922473106203        1.63983370910195       -5.71649486745619
C            4.69442885142728       -0.89008118210900       -2.93101489102986
C            5.57598355214798       -1.93988607697112       -3.26401880462466
C            5.73499781881331       -3.01935244058281       -2.44345700492126
C            5.03004737353370       -3.10182717143882       -1.24321600126702
C            4.19065807706377       -2.09069711814035       -0.87438246068898
C            4.01302150101436       -0.96464252988966       -1.69241138574509
H            1.24362298171804        0.80532969543007        1.29437038207932
H            0.91154128082999        1.17872810668408       -0.40810742253453
H            2.29857113561724        1.94286571996089        0.43336753342715
H            2.44121620615574        2.05253084397821       -1.76985366340186
H            3.57974593268609        2.17137858307319       -3.90746444395386
H            4.94759778371015       -1.63378862075139       -5.88791161560922
H            4.21359633634324       -1.41608186760452       -8.84874137658315
H            4.77813740063326       -2.83681282140445      -10.77666474415773
H            7.13146256651028       -3.20351726396039      -11.38386088813259
H            8.92015067538894       -2.15760564625524      -10.06147030814748
H            8.35254418936217       -0.73582261030664       -8.13457897367490
H            6.47806330367699        0.86986556948343       -9.74619204621849
H            7.41871181978109        2.45251221036076      -11.35183930531277
H            8.14663335263455        4.67967248034646      -10.60691370964700
H            7.93137811579106        5.31181316245727       -8.24142678536623
H            7.00289443790077        3.72582813217398       -6.62438535062720
H            4.84083312515877        2.39655601429613       -5.80099586146079
H            6.44021957771649        2.05733651999653       -5.10837117702024
H            6.16193960010914       -1.86958945047108       -4.16203722307148
H            6.41428716318098       -3.80979377430299       -2.71829266662212
H            5.15989257750381       -3.95822654951997       -0.60198544396395
H            3.65536256237031       -2.13305046672834        0.05855329869977
