51
 energy: -8.238935712040 gnorm: 0.003446815426 xtb: 6.5.0 (97a52f5)
C            0.10699250403173        2.04291791772110        0.56675166065435
O            1.02810606819292        0.98379560904353        0.46690002775387
C            1.70465368460491        0.93570856833396       -0.74347648452709
C            2.62260811703275       -0.12027588352794       -0.85936499628129
C            3.58582193773326       -0.36663674768809       -1.82657866685514
C            3.90829422936146        0.45137460349187       -2.84598262531155
C            4.87553268080479        0.24133549247006       -3.78006981610637
C            5.15624797458536        1.02267126245230       -4.80498009873800
C            6.19605204751144        0.56983052489489       -5.61763215498330
C            6.71541992968465        1.20057062294410       -6.75922309471246
C            6.26415025606110        2.33965059401723       -7.32149364185526
C            6.78365570390303        2.99996604832832       -8.38520245397750
C            7.90573860579210        2.63559984276134       -9.12475328362968
C            8.66138783150008        1.52330111638019       -8.87829454431650
Si           8.13290176614576        0.55654672192423       -7.54005054858803
C           10.38906911296541        1.29508532223843       -2.62538086110295
C           11.25284027593778        1.33392364085247       -3.62182598359140
C           11.17810238264265        1.83052200380727       -4.88500458299532
C           10.15237446344629        2.51717813106441       -5.51464599888713
C            8.92121168073747        2.93079116634551       -5.02530550710948
C            8.45383368596705        2.74869750844645       -3.78477593382674
C            4.32539794921217       -2.51354950928704       -5.95152973868375
C            7.68125979219944       -2.94563752238379       -8.29533986583097
C           10.48116074598223       -2.49432850215695       -5.69923960395544
C            9.94059425483637       -1.63224718998861       -4.89344741746908
C            8.67314040030070       -1.61089995180949       -4.46421714817438
C            7.75134969556482       -2.49212411924738       -4.80932104918677
C            1.63981347610361        1.88781213938209       -3.03570217585206
C            1.42677184338949        1.88572569875317       -1.73128506275998
H           -0.37498964900668        1.99783264141596        1.54403766279170
H           -0.64955704792062        1.94762012962335       -0.21341672813136
H            0.63034135224300        2.99462533666307        0.46726263911972
H            2.58251543944131       -0.81659409941060       -0.03723989909964
H            4.16777487258869       -1.27005087240220       -1.73414559697854
H            4.62641831654320        1.93680595796791       -5.00305725728021
H            1.00525942582140        5.39237661672280       -5.97158574340346
H            6.26770377469789        3.90027973821122       -8.68015727900210
H            8.19738357317136        3.27245919052137       -9.94843218808392
H            9.52361114901221        1.24462538935144       -9.45137259962102
H            8.80013141203466       -0.62603840555779       -7.09752485407930
H           12.06104813789923        1.65282610133478       -5.48076435784130
H           10.33829976871179        2.77321763973758       -6.54812892357486
H            8.27272881978734        3.44699132645349       -5.71801233715005
H            7.51605325320497        3.08221185947724       -3.44707019839584
H            4.89344030788165       -2.44289871832542       -6.79900932656084
H            8.17362009734934       -3.74479279073934       -7.88360780369276
H            7.83731261115845       -2.85730463603608       -1.72476823022122
H            8.29941550412604        0.48062601375365        2.43882076814290
H            8.38183949527634       -0.80711446339213       -3.80751369614051
H            4.61501294642695        2.93101384581607       -1.82881953037244
H            1.35562401771553        2.68569855342335       -3.65539539044278
