59
 energy: -11.726517113244 gnorm: 0.000580451542 xtb: 6.5.0 (97a52f5)
C            0.61611108733908        0.60672376372477        0.18391970310740
O            2.00448104710146        0.55035684401650       -0.03556053684531
C            2.76671885814692        1.36968749574845        0.81073466818716
C            4.15578296436523        1.32344690038932        0.67161334543604
C            4.97523984340583        2.08961002992021        1.46298464511002
C            4.43856210220270        2.93865895344357        2.42539664768024
N            5.29325175447375        3.72351184682948        3.27549591956328
C            6.41718818713005        4.41324283382152        2.73737231408647
C            7.52790722271601        4.70269020219010        3.53048634063797
C            8.61414801621049        5.35766364732251        3.00929276445378
C            8.64950237191432        5.74833079011395        1.66488090949091
C            9.81924463597874        6.46019676653863        1.16274935286439
C           10.34094249786832        6.43320068170664       -0.08892065613527
C            9.77544351535730        5.56303874788769       -1.15788942271740
C           11.51812693253292        7.25696739050275       -0.41469370434997
C           11.71471228268830        7.74192219967540       -1.71179071742915
C           12.81409110792817        8.51009953264877       -2.02377466980466
C           13.74763412547233        8.81204420642990       -1.05257979281630
C           13.57807420312134        8.34031999903692        0.23376925238689
C           12.47979883146296        7.57284290423353        0.55119547267722
C            7.52178619688022        5.47802798732303        0.88000004997815
C            6.43707528301854        4.82034664249490        1.40271934358822
C            4.99827416519214        3.77777086804747        4.68228941570153
C            5.06682591643402        4.97818631697904        5.38190261368306
C            4.76674561517395        5.02553190895501        6.72088637803376
C            4.38163279364225        3.87764505233540        7.41730314096834
O            4.09266955654627        4.01581646807421        8.78325476812897
C            3.68554561742876        2.83068605032428        9.42243732516480
C            4.30951286531689        2.67634645907753        6.70775148770808
C            4.61104499051485        2.63086298814660        5.36820661422687
C            3.05582859288010        2.98977205378927        2.57084162852677
C            2.23426912970889        2.22321051934313        1.78035205878175
H            0.12756170039541       -0.08084903072372       -0.50723974194303
H            0.25029917475611        1.61677767464504       -0.00435687525149
H            0.38899965925005        0.30126539479454        1.20604860485701
H            4.57027977346136        0.66553206869823       -0.07146523089671
H            6.04457995248386        2.03421731120030        1.35676673789936
H            7.52770840101580        4.38730505700295        4.55897547668928
H            9.46534609714330        5.56920449828423        3.63368417402997
H           10.32255854969348        7.07426308845308        1.88906393944799
H            9.34997817926832        4.64925891145204       -0.74160747498692
H           10.55129690329121        5.25860183547732       -1.86177739401097
H            9.00136604030113        6.08424430847141       -1.72233060108906
H           10.98374966304433        7.52327409325536       -2.47084436349832
H           12.94576025240102        8.87875147441950       -3.02805697071210
H           14.60809985024427        9.41261539898646       -1.29869938687722
H           14.31010932675085        8.57003010026181        0.99080728985926
H           12.37539354440785        7.18528753383895        1.54940651536592
H            7.48761472023604        5.83050108836511       -0.13508772007658
H            5.57317358770536        4.62902581384104        0.79068688985762
H            5.34841083710453        5.87221884270169        4.85354888905059
H            4.81986567474195        5.95336120770857        7.26224507726376
H            3.48083052622042        3.05397325819608       10.46997532515152
H            4.48162341036850        2.08724949100445        9.36871140508869
H            2.77462154765862        2.45161164217221        8.95759950985343
H            4.01439928003154        1.77504745348925        7.21320160965703
H            4.55356259743653        1.70198689166304        4.82800702064426
H            2.63947559002334        3.64517263431987        3.31592603500668
H            1.16944285037801        2.28293290694686        1.91290459956645
