66
 energy: -13.380695127977 gnorm: 0.000178635189 xtb: 6.5.0 (97a52f5)
C            2.67589970208798        1.74002168028978       -0.45660932179549
O            3.92989773416993        1.11023762861706       -0.36187339778421
C            4.18812921336851        0.16488074899515       -1.36150885547034
C            5.42551316231472       -0.48342214638249       -1.33372785372366
C            5.75167469237983       -1.43299522981517       -2.26851630844785
C            4.85307243880449       -1.78136936885736       -3.27212196962322
N            5.17315043453037       -2.81123375355747       -4.22212488940232
C            5.85652885358284       -3.98822701459945       -3.77098268359253
C            6.76091431356636       -4.65319829296683       -4.59196467237209
C            7.44243667957931       -5.75976345797358       -4.14200986568412
C            7.25052304611157       -6.23732882355717       -2.85334923428762
C            7.97503004300021       -7.44652906141881       -2.37681896909461
C            6.33569596608128       -5.58680836469192       -2.03685176878356
C            5.65130825475314       -4.48102659270819       -2.48600383099267
C            4.81148056571415       -2.65806595335079       -5.55299978232072
C            4.81434467090877       -3.49945786510673       -6.72983839847817
O            5.15001322646298       -4.66052604522137       -6.96707274547133
C            4.26096784436817       -2.41678757516054       -7.51368459866282
N            3.89203340037212       -2.23798332949978       -8.83935588947914
C            3.86655899653496       -3.34010531977376       -9.75607925417979
C            4.15393269470927       -3.15076936574824      -11.10428045329314
C            4.09240140069296       -4.19942934317984      -11.99277523725665
C            3.75148439624940       -5.47515330213861      -11.56516642773765
C            3.65621237888490       -6.60314093691741      -12.53105468397587
C            3.46487818552117       -5.66689891725301      -10.22099402789312
C            3.52355659684800       -4.61933460528907       -9.33183125797618
C            3.53904096669725       -0.92703106787714       -9.31101837982718
C            2.48808185266506       -0.74991422546530      -10.20554109446698
C            2.18370131860972        0.49612605023454      -10.69202636245105
C            2.91269497980180        1.62301898589805      -10.30356373594477
O            2.54591083574604        2.85457670460311      -10.85888618639807
C            3.30811025593419        3.95061016509222      -10.41627835591116
C            3.95636729918019        1.44205646036857       -9.39224959798081
C            4.26011401938477        0.19355230596681       -8.91079568998805
C            4.25828620175506       -1.57643456285448       -6.33706822032333
O            3.92237166734615       -0.41560760496008       -6.10014512347000
C            3.62428365716657       -1.12998359440869       -3.31195877300879
C            3.29578296355608       -0.17695497886089       -2.38100047062983
H            2.58533344657098        2.45471760347149        0.36202692225352
H            1.88053513490850        0.99886127820818       -0.36929926291847
H            2.60114849455913        2.27493376095311       -1.40418913596308
H            6.11959528789703       -0.21754277690308       -0.55639776064378
H            6.71094202866273       -1.91936211082050       -2.23905900663839
H            6.90528086397952       -4.30035068511001       -5.59813568205374
H            8.13032557840162       -6.27003468116399       -4.79420882771913
H            8.97191257979179       -7.50471189453080       -2.81523349440568
H            7.43403095102155       -8.35345559332789       -2.64849829652932
H            8.09101669732097       -7.43491284749962       -1.29255906461804
H            6.16359414234129       -5.95934955671020       -1.04165193619295
H            4.93953170629314       -3.98741162079841       -1.84789408899606
H            4.43188585639328       -2.16829506555971      -11.44328345090816
H            4.30976327789734       -4.03652602303299      -13.03444004014421
H            4.34971743186973       -6.46950584621352      -13.36190444082941
H            2.64856091769172       -6.67684534086494      -12.94145337760002
H            3.89459097168743       -7.55279094485537      -12.05087054030009
H            3.19748040060095       -6.65094032879876       -9.87593107895657
H            3.32104544292840       -4.78308127738405       -8.28783980035622
H            1.91394610777722       -1.60804068510379      -10.50820368548364
H            1.37345367034076        0.63126400988075      -11.38623046102027
H            2.93601917045359        4.85086221542467      -10.90643388693924
H            4.35528477089485        3.80777360343775      -10.68568569030240
H            3.20050251097285        4.06434289327359       -9.33687655927739
H            4.52755863435895        2.28872598519908       -9.05820608696754
H            5.05266746841964        0.06659502467967       -8.19376820956767
H            2.93875295069763       -1.37213588479126       -4.10555546144692
H            2.34156075782021        0.31323950380671       -2.44316845975002
