86
 energy: -17.992741071378 gnorm: 0.000429558971 xtb: 6.5.0 (97a52f5)
C            0.93717359006782       -0.06534114140467        0.11881376561647
O            2.34103998705668       -0.14759404789696        0.06838455327196
C            3.01381302156393        0.89976691323298        0.71014347354346
C            4.41152723491590        0.87849264020958        0.68981590428856
C            5.14681402901169        1.86568755720854        1.29632737407797
C            4.51655816435257        2.92010505584283        1.95056906873867
N            5.28563236829239        3.95502132165154        2.58981366732634
C            6.43617555836626        4.48891394336644        1.93286325548553
C            7.54383511251326        4.91820938985501        2.66616455308576
C            8.64445632689633        5.44253492361655        2.03984677106313
C            8.68919617715853        5.57462297607695        0.64574690588375
C            9.87362152924032        6.13038104383037        0.02275308079472
C            9.97577725756721        6.70862166999861       -1.21074189446575
C            8.78349959202500        7.01512765197432       -2.03601147458412
C            8.68534324383034        6.54639962346112       -3.34649306432081
C            7.58025371415642        6.83507695932748       -4.11566478992411
C            6.55497110645628        7.60062511023641       -3.59623965678139
C            6.63902500194996        8.08212728810208       -2.30472507993039
C            7.74256321423604        7.79705759239271       -1.53222581508884
C           11.29947963967934        7.11870135594178       -1.72103635568046
C           11.41517067603176        8.20078114791302       -2.59497446514293
C           12.64326614963415        8.59324639527529       -3.07879351759014
C           13.78445441515607        7.91280310024411       -2.70418836940616
C           13.69210899467395        6.83564284209934       -1.84561543083580
C           12.46527511895706        6.44059625730553       -1.35936752253371
C            7.58626178760204        5.11443526577751       -0.08625911689796
C            6.48793237016180        4.58659557251569        0.54160011101146
C            4.89431930518076        4.43212758951746        3.87800327865639
C            5.10562008008039        5.76295837348819        4.24288753799073
C            4.74328140437708        6.22044121150205        5.48309085407605
C            4.15941872920031        5.36588888674267        6.42748808722724
C            3.78681198473946        5.89074382166207        7.72566047817313
C            3.59209888752940        5.19411931863552        8.88459694445947
C            3.92998590630064        3.75606466673530        9.00440514900594
C            2.97708869277792        2.83553686652690        9.44182804807898
C            3.29108747916393        1.49985985901754        9.55805681146714
C            4.56142460207079        1.05686626834675        9.24647194474465
C            5.52093174656231        1.95472626894135        8.82204478428886
C            5.21197468880710        3.29143688007945        8.70541080422593
C            3.10168675175287        5.89566190010711       10.08801116711298
C            3.46568643618111        5.45313249799257       11.36067989336657
C            3.01404262581847        6.09696271972584       12.49106236696982
C            2.18581944189033        7.19551115647021       12.37755809845970
C            1.80843876475594        7.64626977195202       11.12839927568264
C            2.25885765813459        7.00502494214630        9.99548166842595
C            3.92311020477044        4.03876196937262        6.04428330802001
C            4.28303723730007        3.58376840083748        4.80234176735963
C            3.12488681008624        2.94916248808187        1.97420125405848
C            2.38674479476101        1.96222351304459        1.36854684985093
H            0.51985102048720       -0.92395405197153       -0.40822539867295
H            0.60018439604322        0.84840471509178       -0.37198586078693
H            0.59985928545512       -0.08971256950088        1.15563130395132
H            4.89890415718513        0.06305402821159        0.18544264731314
H            6.22223545943569        1.83383003214516        1.28045384956662
H            7.52657232473193        4.81723927079470        3.73723674547505
H            9.48900751514605        5.77063878389414        2.62136084104800
H           10.76857984222579        6.09499001948017        0.61937111218949
H            9.48755925175200        5.95068098580255       -3.74703098288966
H            7.51562201791188        6.46319664299877       -5.12519060662019
H            5.68998166195885        7.82375589730873       -4.19937494011155
H            5.83964042037320        8.68134245275202       -1.90040603778586
H            7.81339524709378        8.17130825572373       -0.52533549462558
H           10.52609494229346        8.73409761130462       -2.88404017814395
H           12.71372740159211        9.43310089185651       -3.75062310560901
H           14.74542953931154        8.22012710736942       -3.08346551510657
H           14.58240306508191        6.30045330131166       -1.55788962464304
H           12.39863391118117        5.58494543594599       -0.71023976910183
H            7.61006262976456        5.16755200115099       -1.15966268144376
H            5.64230265695080        4.25102187480621       -0.03279493742956
H            5.54741497885206        6.43264911542390        3.52592328001555
H            4.91583665976855        7.24948319646747        5.74838967434454
H            3.66985429883327        6.95942185032123        7.77497369636405
H            1.98849771841612        3.18601567570785        9.68419430509814
H            2.54411264566025        0.79900561942610        9.89339946979247
H            4.80454366602148        0.01063594531517        9.33626778766553
H            6.51281597101631        1.60889584732410        8.58096693388525
H            5.95687776432285        3.99545258621009        8.37619613026791
H            4.11454389769897        4.59896662312458       11.44927146541166
H            3.30782702554923        5.74285788389607       13.46573666606122
H            1.83215216447371        7.69875899032501       13.26266206185027
H            1.15679855941003        8.50028086184832       11.03984523526583
H            1.94086057734552        7.34716002669604        9.02605125572713
H            3.44095286052777        3.37107263825295        6.73508497967820
H            4.11028356023194        2.55778115867681        4.52823832693859
H            2.63487995036142        3.76697115814266        2.47339408135231
H            1.31361134172788        2.00972035728769        1.40168698100290
