12
 energy: -2.276386070832 gnorm: 0.000137521636 xtb: 6.5.0 (97a52f5)
Br          -2.82085784476159       -0.53125543317281        0.07973939439183
C           -1.19454185306434        0.42562896342144        0.03451454657971
C           -1.20028320904304        1.80348215841418        0.02325237946180
C           -0.00573488827646        2.50062295210342       -0.00974244534077
C            1.19363542701701        1.81135208404749       -0.03138226197219
C            1.19743286265142        0.43349093938516       -0.02039073463480
Br           2.83034915888785       -0.51270654294133       -0.05053924083008
C            0.00384232097242       -0.26012983883295        0.01263440402192
H           -2.14310722224015        2.32529811145258        0.04045133582472
H           -0.00947268557694        3.57793775287987       -0.01842546005435
H            2.13282236535449        2.33933713439217       -0.05709472774180
H            0.00759556807931       -1.33800828114922        0.02146281029400
