6
 energy: -1.154086643265 gnorm: 0.000726322344 xtb: 6.5.0 (97a52f5)
C            1.03420244718725       -0.04346182694939        0.08349044682479
C            2.43587419108973       -0.04346137306049        0.08348911881998
N            3.59202384217445       -0.04346093209484        0.08348812284540
H            0.63926704884433        0.48948738500035        0.95033914290791
H            0.63926680872446       -1.06064932213963        0.11161427360179
H            0.63926566197977        0.44077606924400       -0.81148110499987
