96
 energy: -18.974416408226 gnorm: 0.000182195107 xtb: 6.5.0 (97a52f5)
C            3.37181381830096        0.63719356919728       -3.75681361177282
O            3.24885109837925       -0.02480055994824       -2.52063979592941
C            3.75761036732060       -1.31531695786874       -2.49914080449383
C            3.63672687355684       -2.04078376656146       -1.30292689745150
C            4.09908611837624       -3.32337921792482       -1.20086329058411
C            4.70888574354559       -3.95775167073781       -2.28898339769781
N            5.15870267753546       -5.30785115669002       -2.18543804714825
C            5.68963773756739       -5.78596907367754       -0.95039266801000
C            6.43703556556461       -4.94247177898066       -0.12081661738321
C            6.97581602986488       -5.40264384469201        1.04845777719926
C            6.79838118001076       -6.73382633559520        1.45871798062613
O            7.39103614791561       -7.12159048590985        2.65166809967385
C            7.20356629435210       -8.47482783338618        2.99091248102973
C            6.03650633458050       -7.57452156732008        0.63034871929676
C            5.49795664906930       -7.10994330919628       -0.53873361394409
C            5.07724227631259       -6.18145165535986       -3.31890542225224
C            5.98744721549143       -7.22578217175422       -3.47693096216259
C            5.92000952985553       -8.09666106266364       -4.55711664755797
C            6.82671694578256       -9.19596543888437       -4.71208576168300
C            6.73628176331420      -10.03366167549083       -5.76685183528452
C            5.74009062613094       -9.84698943459388       -6.78023502025376
C            5.62911984617025      -10.68952143868318       -7.87923167430607
C            4.67765564286830      -10.45284876710053       -8.85808667866226
B            4.58824855089925      -11.40049098593306      -10.08571529859050
C            4.57762364501794      -10.79011024953720      -11.52438057041509
C            3.59288715458339      -11.17022625700747      -12.43875301897991
C            2.52595506688865      -12.13437028130588      -12.05852803466788
C            3.63312051879744      -10.64776408751648      -13.71887181726553
C            4.61062739716164       -9.74176240636229      -14.10306447384880
C            4.65004559290268       -9.20938502454889      -15.49295597996981
C            5.57501568620452       -9.37395162309383      -13.17668974857523
C            5.57897914799537       -9.88724247692340      -11.89283011931910
C            6.62610866975711       -9.45382142113489      -10.92797855803315
C            4.50979170070423      -12.94445220791119       -9.85658753879306
C            5.37680881138230      -13.79850232410527      -10.54154818683747
C            6.40297876055035      -13.26081054158533      -11.47447675139326
C            5.25628324619086      -15.16353151615800      -10.35323927061029
C            4.31443578240892      -15.69656147884966       -9.48562599599165
C            4.18535849010394      -17.17001918210921       -9.31521482230492
C            3.46785959476976      -14.82925259418042       -8.81140669221566
C            3.54546725166382      -13.45982814478997       -8.98587861081906
C            2.62481265819735      -12.56642645334629       -8.23121817810671
C            3.80446991579358       -9.38208102515998       -8.75580590875214
C            3.85222703371778       -8.53086423083552       -7.65894220127632
C            2.94097189040090       -7.43673062587719       -7.49562736703174
C            3.00445628848592       -6.62866208689474       -6.41607326199083
C            3.99559383298503       -6.82453208995221       -5.39927303914774
C            4.08628570740505       -6.00230136039990       -4.28325990128410
C            4.91743345177740       -7.89259584944487       -5.53851020670880
C            4.83647687213096       -8.75824190247339       -6.66113373978929
C            4.84455701099393       -3.23377102776323       -3.47917470538456
C            4.38210843432354       -1.95024160331748       -3.58555297473428
H            2.92604072864320        1.62821507936654       -3.66510212814727
H            2.84078918803496        0.08186428402296       -4.53091258177643
H            4.42515323403693        0.74662098837766       -4.01734494511479
H            3.16087642465387       -1.56069223122731       -0.46630844986348
H            3.97721265176794       -3.87233049318759       -0.28354970357000
H            6.60258211877665       -3.92556913069134       -0.43092690978121
H            7.55687128262960       -4.75261809412008        1.67829357127203
H            7.72308324978668       -8.67208877818301        3.92922924850805
H            7.62336746838035       -9.11496692016486        2.21399812844844
H            6.14116331013583       -8.68116254236956        3.12545068101495
H            5.87190628144918       -8.59685802312739        0.91787661550779
H            4.90179591979020       -7.76018371779496       -1.15492893305639
H            6.76501953480160       -7.35619456266045       -2.74740169897159
H            7.58338439876449       -9.34689985914179       -3.96182576528618
H            7.42133962717995      -10.85770433328712       -5.86646979824084
H            6.29266837174238      -11.52871666037809       -7.98209082731365
H            2.10387522452830      -11.88237127207138      -11.08597321224856
H            2.92016722320164      -13.14979146227061      -12.00472341281922
H            1.70991668347838      -12.13061615739649      -12.78224547239259
H            2.88872460869533      -10.94882377310401      -14.43453150500758
H            3.64590729638999       -9.12429158085011      -15.91054632826205
H            5.23053230176799       -9.86594546506604      -16.14250375128536
H            5.10556848814559       -8.21860255647129      -15.52263981352354
H            6.34134543145435       -8.67691984018461      -13.46645424639071
H            7.53951593152323       -9.15434130330994      -11.44349465872232
H            6.88674214341701      -10.25762069990911      -10.23993929474504
H            6.27983165003451       -8.60527383366927      -10.33656089416806
H            6.92936716610111      -12.41749564745867      -11.02809949270853
H            5.94427265802124      -12.92126416129217      -12.40381819026622
H            7.14734432149345      -14.01730889074763      -11.72613090209552
H            5.90845937623935      -15.82919028321768      -10.89035808753047
H            5.15061306675108      -17.66542048208048       -9.42825227106209
H            3.50357780428936      -17.58716689701515      -10.05758389661689
H            3.79921994648163      -17.41997914501141       -8.32604883879897
H            2.72958938259862      -15.23272055200532       -8.14114667410316
H            1.69206079431422      -13.07581743776321       -7.98575626309795
H            2.37093687438064      -11.67953718806550       -8.81121090448268
H            3.08386173903456      -12.23692040544007       -7.29825724850434
H            3.07736565806806       -9.21994732255515       -9.53050375043461
H            2.19410425963013       -7.27362983372552       -8.25316363512015
H            2.30987120023692       -5.81405745611956       -6.30567528159171
H            3.37034691534792       -5.21163898787562       -4.15628542226988
H            5.33659404608278       -3.70171835562982       -4.31394554214523
H            4.50062937187814       -1.42159732297383       -4.51368285139547
