96
 energy: -18.986802416447 gnorm: 0.000483602359 xtb: 6.5.0 (97a52f5)
C           -1.37917184352678       -2.36220582488239       -2.25634592251192
O           -0.32015857821156       -1.70738999631279       -1.59974087597110
C            0.83991277270416       -2.46006408457237       -1.47448755525166
C            1.93234648372988       -1.86545450730069       -0.82381161200524
C            3.11414089858407       -2.53552275097828       -0.66329900232475
C            3.26871535791417       -3.83833608630546       -1.14382999571150
N            4.51058415902717       -4.53596309421257       -1.00293819235690
C            5.26247364853900       -4.38286412181858        0.20488056722818
C            6.65451744300535       -4.50269079444782        0.19634466689985
C            7.37883178775446       -4.36359810838065        1.34864726491379
C            6.75140032256571       -4.09930316146077        2.57598782373823
O            7.55969130214671       -3.97546568261693        3.69820219677664
C            6.86819200013220       -3.71799029966203        4.89706372106538
C            5.35245850384546       -3.98138551433457        2.57983006142892
C            4.63166855042312       -4.12092384290111        1.42426205376570
C            4.94275931966852       -5.47029900469636       -1.98613041392482
C            5.46481904988270       -6.70785024261825       -1.57500934767976
C            5.84184414137021       -7.66736673609492       -2.47033201929846
C            5.73326895153060       -7.44560783740728       -3.85436021532197
C            6.10702862311451       -8.42720387962080       -4.80527445619423
C            6.01976587512494       -8.18302235947823       -6.13905923101439
C            5.56449022208389       -6.93697052656956       -6.63475412439363
C            5.49393123827648       -6.64620872471604       -8.01583661587567
B            5.95998339381931       -7.61232914904853       -9.11526911299871
C            5.21548240254904       -7.61461258550615      -10.49436355484569
C            5.90896708692443       -7.35347733261025      -11.67601593880577
C            7.36229952111247       -7.03688076646267      -11.65662715035771
C            5.22000983772372       -7.39345790960373      -12.87525189661747
C            3.86366069882338       -7.67889584617711      -12.92386107960342
C            3.13648574836383       -7.69145766137645      -14.22305556338745
C            3.19135905829020       -7.91235924457640      -11.73352581255482
C            3.84791788754865       -7.89421999104249      -10.51669790865063
C            3.08565075953530       -8.14638498864246       -9.26324729843711
C            7.23278215110937       -8.50636190899434       -8.92172254313893
C            8.42194405505041       -7.92927078650400       -8.47053834752829
C            8.51383910181103       -6.47732683960594       -8.15666001708332
C            9.52416499221123       -8.74097518739132       -8.27350976231688
C            9.47643500398143      -10.10391805314102       -8.52406595863854
C           10.68137944491862      -10.95688403225149       -8.33067067989158
C            8.29113314399418      -10.65113086201430       -8.99093464363319
C            7.16260285592036       -9.87492795539421       -9.18585980260702
C            5.90246822834603      -10.49900817838492       -9.67148632227619
C            5.00698544442068       -5.41104201139059       -8.44669154100363
C            4.61749390793595       -4.45304575318529       -7.55485415647258
C            4.69328799445323       -4.68647464353352       -6.16823857411177
C            4.33078060589881       -3.70125389762820       -5.21792038891220
C            4.41499642129424       -3.94753069085571       -3.88394064493047
C            4.84797523108107       -5.19969778214806       -3.38146726695321
C            5.24238972110241       -6.19727458774286       -4.30921639889227
C            5.16273529649721       -5.94209569686880       -5.70800509037264
C            2.18413269849566       -4.43740261369276       -1.79046976901565
C            1.00026593061010       -3.76999283305814       -1.95361148290426
H           -2.23332675508034       -1.68545963413007       -2.29656547748829
H           -1.66406966048113       -3.25757564897460       -1.70257506693650
H           -1.08418916374488       -2.61904807159534       -3.27444181425005
H            1.81654475516953       -0.86154493240911       -0.45564357805914
H            3.94853829545789       -2.05840204820775       -0.17960039949647
H            7.15172249260981       -4.69423282742752       -0.73848506780256
H            8.45053710053707       -4.45374208130057        1.33733213412110
H            7.59392911880138       -3.64609231143924        5.70781638015281
H            6.17888811465649       -4.53531919426293        5.11237470606940
H            6.32992875283683       -2.77250072048419        4.82058447373724
H            4.83773904164355       -3.78119068590326        3.50174989214156
H            3.55839504656854       -4.04792847838577        1.44532194756853
H            5.53552432052953       -6.90248860158828       -0.51909680189473
H            6.22531204424986       -8.61134703891095       -2.12308202258996
H            6.46805807721387       -9.37770769451322       -4.45210542877850
H            6.30867738134097       -8.94405220948202       -6.84008132668293
H            7.94621327330632       -7.90490613250147      -11.34891261723125
H            7.57169597820593       -6.22190833033356      -10.96407459123008
H            7.71684927063201       -6.73053511084545      -12.64156719297260
H            5.74645861241613       -7.19584367932947      -13.79216156850241
H            3.79287950754068       -7.99882879236348      -15.03839048230313
H            2.74792343109956       -6.69995527582699      -14.45916761449463
H            2.29538049132029       -8.38562611602000      -14.19676631453590
H            2.13521072067378       -8.11503994325148      -11.75702050143659
H            2.39840285021498       -8.98466016126990       -9.38498919965375
H            2.50201560459125       -7.26875127827286       -8.98248109805381
H            3.75056667295538       -8.38297694178342       -8.43276153350696
H            7.78839233477139       -5.90012123741782       -8.72909600390373
H            9.50492952012734       -6.08601512603491       -8.38959002498155
H            8.32110457346255       -6.29821017847819       -7.09808789783489
H           10.43959592953437       -8.30473157328933       -7.91476807999329
H           11.34626550357954      -10.53462081867364       -7.57594338750455
H           11.24348597268139      -11.05028047967315       -9.26080460976357
H           10.40429580975245      -11.95969592130065       -8.00252593762464
H            8.24919923772792      -11.70525095442301       -9.20083908040458
H            5.96844751403988      -11.58771451026208       -9.66496153269858
H            5.68143857202154      -10.18559638603365      -10.69237082428786
H            5.06066291154673      -10.21691776556134       -9.03941030927468
H            4.95763898071963       -5.21910109521963       -9.50436352467140
H            4.25485409163229       -3.50184212566640       -7.90436313154237
H            3.98959873471011       -2.74346116985505       -5.57098066024848
H            4.15427895074436       -3.17517621128400       -3.18398421016466
H            2.29751766404050       -5.44107522370327       -2.16152545636959
H            0.18524946992896       -4.25624831185627       -2.45774523369312
