42
 energy: -8.327629638370 gnorm: 0.000691570845 xtb: 6.5.0 (97a52f5)
C            1.11107866814627        0.21138526443026        0.12093900545259
O            2.50483073601984        0.13764835209078       -0.05464545137916
C            3.05560493534000        1.16679262348000       -0.83500014735292
C            4.43715532535654        1.15374956001943       -1.03599043820378
C            5.05649255955628        2.12630340549578       -1.78245625620260
C            4.31765496313639        3.15157932228212       -2.36213198055439
N            4.96342400989391        4.18755001228087       -3.12292796525203
C            6.01194190630130        3.87032332116981       -4.04115350833103
C            7.02967748728040        4.78468063128312       -4.30510895495845
C            8.04144310685201        4.47650143912716       -5.18598655242821
C            8.05684873105017        3.25009003247925       -5.82145054305358
C            7.05489729710581        2.33246908790816       -5.57178654601035
C            6.04240226007236        2.63810182664651       -4.69078094398192
C            4.55521887861021        5.55187247502971       -2.92297068318160
C            4.39388682584604        6.41405067215070       -4.00184728317147
C            3.99471478001400        7.71360765056091       -3.80507153538759
C            3.73641429298461        8.20434566252420       -2.52387679170424
O            3.33350984868738        9.54485311819488       -2.41196934415276
C            3.07979222678637        9.97596578196954       -1.09768157932327
C            3.89505125058360        7.33190082155472       -1.44530401638247
C            4.29635936173275        6.03249686819041       -1.64402792577047
C            2.94085719348618        3.17068385476483       -2.16754406848318
C            2.31950275758018        2.19897333333170       -1.41991847917682
H            0.79424015449015       -0.63048363348584        0.73755060488174
H            0.61084951036173        0.14920755163340       -0.84605832231571
H            0.85013251622504        1.14024586587200        0.62947770215943
H            5.00829559637526        0.36138486435211       -0.58589514565089
H            6.12371845292224        2.11368184420436       -1.91777299799446
H            7.02044683301742        5.73373294862130       -3.79850083603342
H            8.82359238106620        5.19250326705602       -5.37862632801093
H            8.84947079215093        3.00942678479821       -6.51069594060023
H            7.06526922757193        1.37593648337804       -6.06819742106254
H            5.25411814666151        1.93085280135995       -4.50139036865242
H            4.57964204242249        6.04398875262752       -4.99491024388291
H            3.87057283645575        8.38144131143676       -4.63886360709773
H            2.77595535656334       11.02275488892773       -1.12909888686276
H            3.98548258250653        9.88869549928201       -0.49652043868679
H            2.27231089568699        9.38594141911913       -0.66299644213674
H            3.70187111890686        7.67772006942986       -0.44644803709326
H            4.41943057653785        5.36645470827272       -0.80797542544476
H            2.36711367050240        3.96303071043431       -2.61554732752559
H            1.25411790715128        2.23805874571637       -1.28523854899926
