38
 energy: -7.734338658067 gnorm: 0.000698341074 xtb: 6.5.0 (97a52f5)
C            1.15798400315022       -0.09725865311977       -0.01172890828800
O            2.55666618620943       -0.01828491872184        0.11823079287367
C            3.19977598024753       -1.25134602308650        0.31307818903493
C            4.59150777171152       -1.24090244428671        0.42567428662129
C            5.29883878909552       -2.40341796340689        0.61282084632273
C            4.64169550935017       -3.62589100870568        0.69636446409108
N            5.38259921341062       -4.84726202069380        0.87828877640293
C            6.44424835192610       -4.89006610715038        1.83952347832716
C            7.59482569401206       -5.63862684782515        1.60240480545185
C            8.61982493359049       -5.66220575169001        2.52111254256962
C            8.51639578078336       -4.93837778256011        3.69306502131674
C            7.38327282909364       -4.18849118476859        3.94179618594409
C            6.35734716921876       -4.16266046660728        3.02418639673602
C            5.06451059739652       -5.98990858109025        0.07513070009890
C            5.20411960190972       -7.28092305088909        0.57956020343601
C            4.89045759364943       -8.37565070112056       -0.19422904956678
C            4.42931692556097       -8.20274155853217       -1.48492223169457
C            4.28095575611707       -6.92896820538397       -1.99851020145022
C            4.59433455953285       -5.83295723320178       -1.22670592576166
C            3.25521325649834       -3.64468647471502        0.59067430145300
C            2.54581463540687       -2.48241728207367        0.40215439121933
H            0.76640323923796        0.90918575209015       -0.16192069947618
H            0.72279670346683       -0.51371077842740        0.89752957817521
H            0.89908365861079       -0.70984139760137       -0.87630098916458
H            5.09927824146051       -0.29454517206972        0.35988832087817
H            6.37192653683508       -2.38422531937940        0.69006697691270
H            7.67780717055926       -6.18655676059868        0.68021400830463
H            9.50568112709505       -6.24354027572966        2.32401749331062
H            9.31960012339543       -4.95695815845889        4.41133532131704
H            7.30237040310302       -3.62239420496866        4.85529253968272
H            5.47038056824916       -3.58400685576560        3.21406210834267
H            5.54837252246053       -7.40991264742383        1.59081210936749
H            5.00287589573315       -9.36918091411082        0.20844491980587
H            4.18395965840095       -9.06020989587675       -2.08993274001910
H            3.91942112796981       -6.79285518470481       -3.00471285732457
H            4.48716654815787       -4.83867720110663       -1.62389720920964
H            2.74454739392962       -4.58929082940590        0.66277370440056
H            1.47501394346600       -2.52477589683279        0.32430834955915
