17
 energy: -3.110412290520 gnorm: 0.000776960282 xtb: 6.5.0 (97a52f5)
C            0.92115455082118       -0.00984072270344       -0.02406054430001
O            2.32344954958288       -0.10153879943355       -0.01172095948500
C            2.99695029947318        1.13383616599641       -0.02633040905151
C            4.39081993770814        1.10441504785437       -0.04540618950639
C            5.12968839704726        2.26321342446918       -0.06310347471113
C            4.49980651050400        3.50566765189103       -0.06161100503877
O            5.21680769188755        4.69543079541005       -0.08113712556062
C            3.10791000425481        3.53919096953852       -0.04064778056503
C            2.36975523402409        2.37941186797770       -0.02335010597094
H            0.50944187854936       -1.01957778335106       -0.02840811395997
H            0.59206411387796        0.51135172970593       -0.92376832571502
H            0.57633282700095        0.51007356471980        0.87049281573814
H            4.87629829765931        0.14461690119061       -0.04678131610054
H            6.20411399170660        2.22142560631785       -0.07858025262445
H            6.17940781841821        4.50486155680621       -0.10287197306898
H            2.62433073093769        4.49987743615930       -0.03852001406758
H            1.29688816654682        2.43614458745110       -0.00628522601219
