72
 energy: -15.040085880157 gnorm: 0.000598577638 xtb: 6.5.0 (97a52f5)
C            1.70679968421360        0.26674108603816        3.52792566973328
O            3.10830265890264        0.36294221106525        3.46526112819933
C            3.75849878490962       -0.78585185186243        2.98414031549420
C            3.09570443980477       -1.99009729020668        2.65517105385793
C            3.78390283133492       -3.10267798009226        2.24762366609457
C            5.17070297325116       -3.03801715715518        2.14846371082622
C            5.84790935477411       -1.84347012663123        2.43847675380135
C            5.14018169283512       -0.72053359564958        2.85712341604226
C            7.26117660393662       -2.10736379172798        2.30917288994269
C            8.38737455843767       -1.32183249639518        2.53963101915189
C            9.65309750910039       -1.87548085133065        2.39624143791175
O           10.75464318935438       -1.05563599045424        2.69535480731801
C           11.97342248208700       -1.74109471136294        2.85473012032583
C            9.76945170532125       -3.21769419306531        1.97245467404165
C            8.66734659929502       -3.99951007509270        1.74750461022882
C            7.40141031435949       -3.45498368689403        1.94514478112217
N            6.12135178741759       -4.05397137406449        1.90649861956071
C            5.84372291380357       -5.46537723385080        1.99445933255589
N            5.12490278930239       -6.01743737780108        1.04572197183531
C            4.98591732051904       -7.35277476134240        1.15796016563226
C            4.24733603232796       -8.04871208457484        0.18081363986171
C            4.09971600520835       -9.40425695591039        0.23705190425462
C            4.68438879417805      -10.13037161376138        1.27341115329958
C            5.40526878579386       -9.48932259403440        2.23872941892030
C            5.57802408549614       -8.09137744503951        2.21478715496195
N            6.27770601010655       -7.50101985485747        3.20320590732793
C            6.36736786563710       -6.19613296169211        3.09942843180063
N            7.03278248876928       -5.47214751203259        4.15295571494918
C            6.50238097803853       -4.38080680888906        4.87910254141282
C            5.19091821564333       -3.93867377587049        5.03061829013653
C            4.95910805740057       -2.75881225818032        5.68711979131543
C            6.01478386304852       -1.98289078004541        6.21459649083717
O            5.82878276824081       -0.73930541691422        6.84231578260754
C            4.56268803463781       -0.15988787202871        6.63887630471819
C            7.31640427349412       -2.45536609049462        6.10765874836848
C            7.56116553492216       -3.65616589888109        5.44697423290572
C            8.78157378332575       -4.35450776979004        5.12137423500789
C           10.12108101970219       -4.05335923634392        5.34927484481711
C           11.10954208773102       -4.87665262413165        4.82531282732401
O           12.44216967501061       -4.48838709473477        5.04283152243907
C           13.40692552285164       -5.37881764688524        4.53937766318291
C           10.72955468296363       -6.02406496012304        4.09262186700397
C            9.41362231295500       -6.32660467256195        3.85939014480727
C            8.42905047487417       -5.48269118065646        4.36490733643538
H            1.31037992367816        1.21731622757246        3.88629287392396
H            1.41847852248254       -0.52144923062380        4.22435493484454
H            1.30478385685459        0.06779546286505        2.53377365867707
H            2.02595240658181       -2.04205210846362        2.74033868371688
H            3.28428490702203       -4.02679972040480        2.01868649353847
H            5.65509581978421        0.18499413975458        3.11553805355917
H            8.28728111575173       -0.30223444151229        2.85940090503924
H           12.71829482822164       -1.03739546574756        3.22767161670765
H           12.30731036037940       -2.13399627253381        1.89403329913125
H           11.85439683385118       -2.54750389792682        3.57978480465831
H           10.74711142008568       -3.64226901239118        1.83702165381275
H            8.75806617216054       -5.02834034655163        1.44806871974118
H            3.80405847778956       -7.48154372782933       -0.61870539598609
H            3.53196712620591       -9.91700493655456       -0.52178275994881
H            4.56426250251398      -11.20052379159273        1.31127378165116
H            5.85514028407610      -10.04155100657530        3.04498497830762
H            4.38727911173490       -4.51523508390449        4.60857718938329
H            3.94858658539478       -2.40830920706740        5.78925177383072
H            4.57994965953774        0.85500742894918        7.03742186468466
H            3.80184148418430       -0.73510703593175        7.16703078077370
H            4.34118475269164       -0.11708215536501        5.57155337774110
H            8.12646849385851       -1.87517456186402        6.50644390900114
H           10.39803834105629       -3.17338032413656        5.89776837235004
H           14.39635182405195       -4.99529826591672        4.79070748097210
H           13.31931721910490       -5.44826949916568        3.45451622503961
H           13.28077274218865       -6.35978744282639        4.99907560671279
H           11.49029979088018       -6.66932845991909        3.69367640722336
H            9.12243389256511       -7.18717090773999        3.28437461855549
