19
 energy: -2.900943870324 gnorm: 0.000586986354 xtb: 6.5.0 (97a52f5)
C            0.97245341263997       -0.02213676545889       -0.09855294617315
C            2.46326570970370       -0.01690393423276       -0.09383765195743
O            3.07612016037538       -0.78622273059622       -0.78694402193370
C            3.21289651916391        0.97774230225229        0.80227512826557
C            2.85098997259853        2.41577131923722        0.40249467334770
C            2.85099027105623        0.72960178486972        2.27406920291230
C            4.72017132412365        0.76307258118108        0.60887105362463
H            0.61086492744908       -0.78575424807942       -0.78652281133730
H            0.57119389981327        0.93637881247697       -0.42608695359319
H            0.57119325417665       -0.24826299488742        0.88881580187326
H            1.79203253384056        2.61423907660408        0.56139062686353
H            3.07359271234680        2.58984330862025       -0.64962440160601
H            3.41677711063959        3.13679468505328        0.99158571704176
H            1.79203296632882        0.90826692701231        2.45494605164269
H            3.41677800770374        1.39044747266865        2.92995431861449
H            3.07359263236044       -0.29872454479574        2.55655949612408
H            4.99353956331113        0.91722156273168       -0.43417794804358
H            4.99353947761521       -0.25830361367655        0.87060332023274
H            5.30302554475335        1.44693899901945        1.22499134410161
