64
 energy: -13.860991006860 gnorm: 0.000704107746 xtb: 6.5.0 (97a52f5)
C            0.57146021663078       -1.63092336566752        0.01831919504526
O            1.94646270205576       -1.80357548913098        0.25931991953803
C            2.73695931043146       -1.93559732728843       -0.89416146729112
C            2.22587694461586       -1.90347311995248       -2.21169322935657
C            3.04222663513855       -2.04418417482218       -3.30277962948968
C            4.40791790591082       -2.22264081247296       -3.10528730991281
C            4.93966500276110       -2.25147708797943       -1.80883107263126
C            4.10254265362247       -2.10906763781024       -0.70551385285854
C            6.36273981748052       -2.45611433145701       -1.93559308073380
C            7.38322232795121       -2.56947225405922       -0.99136830493756
C            8.67040624879774       -2.76028177991631       -1.43166976061883
C            8.96089590812309       -2.82991127228596       -2.79685684791283
C            7.96756540130511       -2.71711303580279       -3.73643682534562
C            6.65239489768968       -2.54692853108736       -3.30840758983225
N            5.44594613361719       -2.45491353978179       -4.03114605302432
C            5.23079029306184       -2.59151583751851       -5.44363640915377
N            4.46587804358421       -1.70024299538901       -6.02962927087890
C            4.37493519839280       -1.82752441075808       -7.36798164790278
C            3.58997397508519       -0.91016300442710       -8.09402287794854
C            3.49275928472094       -0.98371803656031       -9.45306020224107
C            4.17686751275907       -1.97746472169361      -10.15253583359519
C            4.94444688829306       -2.88406721595769       -9.48128285535851
C            5.06574417272036       -2.84077997935883       -8.07827672814511
N            5.80829343090732       -3.77556756529270       -7.45350806126409
C            5.84485964549171       -3.66469648167551       -6.14610445851356
N            6.53103395641577       -4.68986208908065       -5.41225654442265
C            6.10515887894464       -5.38535722857102       -4.26311301549317
C            4.90411458504482       -5.34231999902655       -3.55772480228630
C            4.77568976978512       -6.10201106721404       -2.42250885205709
C            5.82131035873711       -6.91731976234494       -1.98072523373019
C            7.00574427012836       -6.98658932397576       -2.67329461410799
C            7.15091347020043       -6.21850671924214       -3.82853228589558
C            8.23901382439705       -6.06740645423862       -4.76488729588963
C            9.51405783589311       -6.62325659299141       -4.82545789234368
C           10.37362684706970       -6.26590311512636       -5.85689747314395
O           11.64863107349930       -6.85530442048987       -5.85662294180133
C           12.48128257762575       -6.46491458632984       -6.92058628857282
C            9.92819517957392       -5.34382761108334       -6.83142352286342
C            8.67507654559419       -4.79264820330220       -6.77992283806885
C            7.82244323633149       -5.15145107886240       -5.74058575317501
H            0.06059196407136       -1.54649486124631        0.97764578280768
H            0.17675996798536       -2.49492648459778       -0.51721679240488
H            0.40643941289965       -0.71643506136042       -0.55229105942070
H            1.17156022369559       -1.76356984534145       -2.36408271399789
H            2.65952025741436       -2.01086404572924       -4.30662904512412
H            4.50146982642215       -2.13536810275413        0.29041723610251
H            7.15207716403961       -2.50900282635704        0.05736436551531
H            9.46928255776964       -2.85469247540187       -0.71488221836985
H            9.97901574278432       -2.98096125411630       -3.11575802892356
H            8.17887894802028       -2.77683396589482       -4.78856001386741
H            3.07090547350353       -0.14271272599826       -7.54709179128878
H            2.88774633891969       -0.27156937735505       -9.98968390889180
H            4.09615885836045       -2.02910914747238      -11.22588427150743
H            5.47030934711766       -3.65796776153316      -10.01242925689033
H            4.10992707465243       -4.70473374273323       -3.90140248425762
H            3.85717359810619       -6.06587640781037       -1.86022069303548
H            5.69455517461217       -7.50162579788775       -1.08442585795952
H            7.81381769077563       -7.61459609002512       -2.34231496461977
H            9.84213982763875       -7.32161900709691       -4.07952519939824
H           13.43561265549696       -6.98293332796716       -6.82051040633111
H           12.65675035248079       -5.38929684925012       -6.88015466304333
H           12.02546101482947       -6.74481634630444       -7.87106302598240
H           10.58710391168335       -5.06660598284014       -7.63355446654694
H            8.32929965631253       -4.09774625290746       -7.52356291435327
