42
 energy: -7.931704440323 gnorm: 0.000923988563 xtb: 6.5.0 (97a52f5)
C            1.89040990170463        0.86065917730356        0.11176193019337
O            2.63356550593122       -0.26881763983534        0.49586874417938
C            3.09153919738109       -1.05973932478959       -0.56280633740640
C            3.83973514880019       -2.20701932776304       -0.22449222187460
C            4.33259831261916       -3.05005960922945       -1.18128765688960
C            4.08607427678836       -2.76242060814955       -2.52300700325247
C            3.34981550234000       -1.63221268951722       -2.88033788437481
C            2.85462342337121       -0.78525605536373       -1.90843929262202
S            3.21531255591781       -1.54851815492277       -4.63086707731851
C            4.14560348989067       -3.04206707910415       -4.84539611252314
N            4.48918198409678       -3.48897021280155       -3.64708148442951
B            5.31928456304216       -4.75128487679794       -3.48228371312176
F            6.53133314115128       -4.39100883205975       -2.91341688402783
F            4.62604237890428       -5.61565209275359       -2.64933552630502
O            5.50977345689857       -5.32839141780494       -4.80719936211568
C            5.10000588214718       -4.72150413262296       -5.95677332790592
C            5.44508447009241       -5.40996607720934       -7.18966793176927
C            5.09759857564698       -4.88359874591809       -8.43267691830149
C            5.42468061932281       -5.54457676389784       -9.58750653514227
C            6.11293876284185       -6.76374705311238       -9.55042878614857
N            6.44252518562252       -7.44757623561451      -10.73388992625566
C            6.17484825856528       -6.87056943286359      -12.05096165719585
C            7.03272901597450       -8.78429043894101      -10.70588004542153
C            6.45965312061887       -7.28382758786417       -8.29739143587334
C            6.13300142560301       -6.62015355892137       -7.14405668238194
N            4.43430610343763       -3.60078988187780       -6.03727235606645
H            1.58862928272728        1.39490786735437        1.01340406288596
H            0.99817611451065        0.54895564088436       -0.43273340188125
H            2.50752545085867        1.51837661716926       -0.50166264720790
H            4.01304164853016       -2.40466034037210        0.81848949632668
H            4.89953008919428       -3.93031171398179       -0.93164129910908
H            2.29042206022255        0.07687869635828       -2.20811676653188
H            4.56567905084795       -3.94855124347689       -8.46448423139043
H            5.14148838955448       -5.12620172317473      -10.53641310826413
H            6.60344611953460       -5.87273929853292      -12.11408881683147
H            5.10206391495874       -6.81099945054504      -12.22069831358378
H            6.61482990900451       -7.47545294676249      -12.84037805238886
H            6.42753153395192       -9.44707689819374      -10.09110347613430
H            8.03867400387735       -8.73780660202691      -10.29507434568113
H            7.08795862457259       -9.20781390544549      -11.70587657269599
H            6.99669204540449       -8.21342390855610       -8.24044005385205
H            6.40035750354115       -7.01834213826386       -6.17972698930898
