34
 energy: -6.819606180389 gnorm: 0.000712511275 xtb: 6.5.0 (97a52f5)
C            1.05924738328089       -0.14877255109135        0.26000520840740
O            2.12776975773245        0.37309436230448       -0.49062328722256
C            2.85854158566953        1.37043411750565        0.14881930764628
C            3.92157088694701        1.95375517117838       -0.56858843610501
C            4.68511807124606        2.94191636508419       -0.02124770616232
C            4.43146826154889        3.40616770635235        1.27811706297902
C            5.19069881082666        4.43364054962897        1.87927256618347
C            4.92507697183231        4.87765082990077        3.13457383815536
C            5.71687316172288        5.96657574642245        3.73135497637898
C            5.83255321909536        6.10456204494979        5.11264178193331
C            6.58106704801284        7.11332469071259        5.67323264312508
C            7.24722655197330        8.02938532418280        4.87386966916305
C            8.02799682697209        9.14354251762973        5.47586223329685
C            7.12458010505796        7.91332533703622        3.49778673049717
C            6.37748434515015        6.90287751740649        2.93557420810419
C            3.83070967967229        4.24714935767211        3.88789051410205
O            3.59948769875889        4.62367054109075        5.02761668023083
O            3.08409081615714        3.24404035647406        3.30297041018359
C            3.37744669745692        2.83334961265957        2.01573772128617
C            2.61134738582327        1.82732260970085        1.43649431542814
H            0.55069720166328       -0.90164665198913       -0.34347142725171
H            0.35315376452148        0.64659730067041        0.50266911928106
H            1.43957539291060       -0.61877943019871        1.16788044194336
H            4.11215419513258        1.59780039165072       -1.56523538884034
H            5.49186768650387        3.37909978301823       -0.58372929531474
H            6.00738915990489        4.85441356275690        1.32297941361701
H            5.29881029622203        5.41605120736299        5.74430914624745
H            6.64607282775045        7.20490031850488        6.74376742363370
H            8.38764809816244        8.88043842297877        6.47106419757425
H            7.41406454722024       10.04014474209013        5.56623624878280
H            8.89652024351152        9.38936025064443        4.86415260963388
H            7.61784915385488        8.63293116266597        2.86715769732204
H            6.27843638055367        6.85169295939865        1.86589630063344
H            1.81411578715006        1.41322377364035        2.02206307512721
