51
 energy: -10.523078187449 gnorm: 0.000702586984 xtb: 6.5.0 (97a52f5)
C            0.88588207523766        0.23551323207735        0.33548864744015
O            2.13718274643385        0.81110979110719        0.63192935857503
C            2.87747385605319        0.15697163236245        1.60305497865107
C            2.41674663234773       -1.00967916542846        2.26390227838300
C            3.17095655805774       -1.64607860201416        3.19160279933602
C            4.44339554066749       -1.14887181819907        3.56320292622431
C            5.21279700785337       -1.78308938920306        4.55802939192707
C            6.41235628883979       -1.26438190647514        4.95006315242524
C            6.88522064233977       -0.08525553846203        4.37394343282640
C            6.16544068716212        0.54566326240025        3.40095984839903
C            4.93633195553448        0.02462327507101        2.94224600460878
C            4.15757306768931        0.66461140061085        1.91765908187376
C            4.66530053072507        1.81099257330973        1.17438386468439
C            5.94239688530487        2.02131846961882        0.75961670476398
C            6.05081843792874        3.25315754969846        0.01528072724889
C            7.33217132980916        3.75862992241786       -0.52069536042152
C            8.08718721709190        2.98431231815211       -1.39945029343289
C            9.28157676900038        3.45327632184664       -1.90010419805376
C            9.74623554518891        4.69941655818205       -1.52898305395583
C            9.01522943144288        5.47577336611538       -0.65182772782280
C            7.82046172915925        5.01037579996435       -0.14870483195767
C            4.81224989886615        3.84354272336987       -0.07521011968502
C            4.42911027942218        5.04735552651059       -0.80365597841829
C            5.22943686339907        5.58649368385840       -1.81539930010004
C            4.84029579049578        6.71033940504892       -2.50751125064009
C            3.63891223465098        7.32372675040261       -2.21323497288338
C            2.82527759567047        6.80363138616518       -1.22631582528406
C            3.21106549611333        5.67886759348972       -0.53263193326017
C            3.84712579209943        2.96767754822602        0.67487607403003
H            0.40483721158100        0.83095471681251       -0.44108879038846
H            0.25422217756590        0.24077832731315        1.22447386659994
H            1.02251004931403       -0.78101052250331       -0.03515499302648
H            1.44968678318675       -1.40738854057258        2.01650395684408
H            2.80149768772181       -2.53443554071776        3.67462420082480
H            4.83571906175163       -2.68218741008745        5.01452283975572
H            6.99025465792516       -1.75643962320440        5.71523000829199
H            7.82169928694464        0.33191631527019        4.70688560223593
H            6.52039391820063        1.47937711157801        3.00481060096780
H            6.75778722644861        1.33465664966019        0.90050569847318
H            7.71922422214649        2.01435714010841       -1.68710555356000
H            9.85406923725197        2.84630575458686       -2.58244968655945
H           10.68067024140551        5.06484716465755       -1.92263242489979
H            9.37919588997591        6.44749193561325       -0.36037990181031
H            7.24572219800921        5.61093127227157        0.53539223849676
H            6.15451832908881        5.10146993171062       -2.06799472382246
H            5.47313779837920        7.10999092836727       -3.28316798688971
H            3.33469874609271        8.20354696681765       -2.75642931689777
H            1.88464761552168        7.27880296970905       -0.99987074406656
H            2.57060597023222        5.27770520190000        0.23346922885327
H            3.04314415403105        2.61972317026673        0.01633716223127
H            3.39129865265140        3.50597241021835        1.51399429287150
