21
 energy: -3.670891241825 gnorm: 0.000562148309 xtb: 6.5.0 (97a52f5)
C            1.15966022413187       -0.25874776645266        0.08753178954560
O            2.50615138917333       -0.12001911708620       -0.26969684554752
C            3.04826928109726        1.15688274475920       -0.05385106587766
C            4.41779992395710        1.30860689019544       -0.25851173066650
C            5.04380761021774        2.52104177512130       -0.06926249125835
C            4.31692227981614        3.62203008846713        0.32182840027881
C            2.94621779571395        3.52058253511616        0.52667426490396
O            2.15568183152331        4.63727002330506        0.89171918392203
C            1.56852020282717        5.26482237732599       -0.22580794404756
C            2.30304834577320        2.28154134951736        0.34951019619475
O            0.94088476807329        2.24027315793668        0.58720303742973
H            0.85056080518393       -1.29153224512701       -0.07734561584059
H            0.55811768986035        0.41125088357101       -0.52878750265129
H            1.03987473564715        0.00216854176815        1.14018094509577
H            4.98025935645934        0.44565097333013       -0.56767201323790
H            6.10558693898443        2.60820916970972       -0.23044071617652
H            4.79216515861385        4.57518091777684        0.46971751727773
H            2.35371533581088        5.68793926561122       -0.85327547405452
H            0.91084715854681        6.06301153293977        0.11972070286857
H            0.99328030799586        4.53746306005116       -0.80031344830885
H            0.68133886059334        3.08814384216355        1.01371881015071
