10
 energy: -1.341951548096 gnorm: 0.000418719980 xtb: 6.5.0 (97a52f5)
C            1.08172346681028        0.13576739584858        0.03315213948858
S            2.87547551980592       -0.04550706227305       -0.17235740539453
C            3.28589603208540        1.68460071352903        0.19168489163502
O            3.16196509812558       -0.58066489974176        1.23698435154657
H            0.66390361631845        0.73849703596186       -0.76791480756265
H            0.86421990333986        0.60385074132943        0.98800263778171
H            0.61738186912841       -0.84518813151153        0.01954823502819
H            2.93737283675052        2.33620227145731       -0.60423144802219
H            4.36226495493143        1.78559871010375        0.28898110349467
H            2.82837670270415        1.98377322529639        1.12943030200462
