16
 energy: -2.883312121679 gnorm: 0.000360023035 xtb: 6.5.0 (97a52f5)
C            1.12925367971998       -0.02551709634248        0.18321851434416
S            2.88288345633166       -0.07007074235771       -0.00022248845727
C            3.30394745688420        0.15422034956077        1.71084902393132
C            3.55250755218021       -0.94359336382726        2.51926475209801
C            3.87693654627062       -0.77032245309837        3.84961734544025
C            3.95496253957306        0.50210613765707        4.38141338142144
C            3.70779918734844        1.60106663435466        3.58193661826995
C            3.38370429995427        1.42775482072256        2.25152030739850
H            0.64956091627891       -0.14611371342615       -0.78555497377010
H            0.81860126122050        0.92532996953364        0.61047553438362
H            0.79881454339228       -0.82811733025331        0.83892597349959
H            3.48846650665577       -1.93105641074405        2.09393005016553
H            4.07160401302953       -1.62796828680625        4.47265189525893
H            4.21078595383033        0.63755681030433        5.41966298299566
H            3.76973789743430        2.59409898232034        3.99625362864859
H            3.19178418989596        2.27757569240218        1.61821745437184
