7
 energy: -1.139697710185 gnorm: 0.000664206165 xtb: 6.5.0 (97a52f5)
C            0.99229887539121        0.09833394372989        0.00672673591961
N            2.43534108962630        0.10601270938629       -0.00150530820811
O            3.03158437345956       -0.63007192545322        0.78758958332936
O            3.01333465364085        0.84854460103474       -0.79751176807110
H            0.63560405792093       -0.60203353629933        0.75753150492066
H            0.62116295541681       -0.20063168541346       -0.96978486354184
H            0.62116399454434        1.09324589301508        0.23717411565142
