41
 energy: -7.065135080722 gnorm: 0.000594804565 xtb: 6.5.0 (97a52f5)
C            1.32768567443895       -0.01814272616682       -0.64282784880373
P            3.03171503343343        0.55389609741005       -0.28438038577043
C            3.37934091135603        0.68153806049749        1.47815175316934
C            2.62711799664154        1.52557146788506        2.26107760508390
C            2.90633198331340        1.64202243364721        3.60977726212304
C            3.93770608554093        0.91358855834373        4.16490587687255
C            4.69118007820277        0.07022617187232        3.37542473784022
C            4.41078626944461       -0.04395192845712        2.02741895142595
C            4.26886088613418       -0.45953420136426       -1.14182609978250
C            4.92034029420981        0.40487409700393       -1.98698067131735
C            4.48908657313390        1.78496869868464       -2.01062210110466
C            5.02631061370792        2.80596916604959       -2.82233373835751
C            4.50348153004093        4.07449316090281       -2.74232061063759
C            3.45636526182294        4.35860859787858       -1.87367158240641
C            2.91521371146867        3.36602395667290       -1.06671742207572
C            3.42618644113628        2.09851142545829       -1.13761154487245
S            6.22069376859683       -0.47026963456984       -2.90365773215329
O            7.53040160112905        0.03084826545499       -2.36511567235166
O            5.79934706581210       -0.50171698579600       -4.34449239018135
C            5.77894928306619       -2.01406271703231       -2.07834202779633
C            6.33825941839818       -3.25076334488700       -2.25015035739001
C            5.84860148746463       -4.31899980031902       -1.51283094524721
C            4.80548655101103       -4.13583860695125       -0.61280809933721
C            4.23865976887857       -2.89536192485098       -0.43474647756027
C            4.72602195412474       -1.80497811540549       -1.17635499622462
H            1.15892072948567       -0.99226480072847       -0.19394750863926
H            1.18396127347490       -0.09673028798686       -1.71650178751452
H            0.60273382237406        0.68393540335730       -0.24241035747726
H            1.82713592611214        2.09492348527756        1.81593379111338
H            2.32110951890037        2.30453172882301        4.22684286865583
H            4.15722006228845        1.00613890769356        5.21646532495130
H            5.49991924338721       -0.49561409613031        3.80888160388085
H            4.99783873649314       -0.69316012111846        1.39882536698080
H            5.83475702048325        2.57513248398040       -3.49525737006742
H            4.90950401567082        4.85794646908124       -3.36224417239974
H            3.05947390803617        5.35960073415672       -1.82636753161052
H            2.10371623771160        3.58219176598284       -0.39378705588644
H            7.14559200919188       -3.38013533765248       -2.95257364947931
H            6.28015597909998       -5.29874317331506       -1.64189592827269
H            4.43534446153726       -4.97782781365533       -0.05076782218806
H            3.42804681326886       -2.74968551975797        0.25663874479693
