48
 energy: -10.093018862780 gnorm: 0.000767083297 xtb: 6.5.0 (97a52f5)
C            1.21308715293861        0.22997863570196        0.05368139370054
Si           3.08350995410315        0.29099409121264        0.03508878828908
C            3.69009186664194       -0.63978382547091        1.54117386396700
C            3.65782180949859       -0.65114946420847       -1.47625298853362
C            3.67994903596782        1.97615868452763        0.00874887896095
C            4.05298030739875        3.13064440572657       -0.06443716861978
C            4.47853932950331        4.47691817822793       -0.16970328721442
C            3.58718042129148        5.52099961327566        0.04886677302872
C            3.99405283303817        6.83202542028346       -0.06759369026071
C            5.30601050063758        7.14259063168991       -0.40659031357097
C            5.71265324165945        8.48660595955319       -0.54340147104231
C            6.03904396084646        9.65456246796278       -0.68348615655059
C            6.38177767526786       11.00918808196071       -0.87503573185945
C            5.62748910799470       12.03712671020198       -0.35307018990148
N            5.90983789376965       13.30525660311521       -0.53800097560677
C            6.99232547498698       13.55477125727420       -1.27586625914526
C            7.30570132774341       14.91189128931988       -1.50738917828797
C            7.56871499428312       16.08453551991802       -1.73122758377463
C            7.86394019760435       17.43431222422239       -2.01012727816507
C            7.50994857530206       18.44134729613630       -1.11876426588648
C            7.79635762460326       19.76075807295478       -1.39825239985410
C            8.44031508309885       20.09522638965219       -2.57191949826988
C            8.79790252768264       19.10738575513249       -3.46642025010667
C            8.51244812370791       17.78757516716969       -3.18853253468545
N            7.80248513563445       12.64856209837984       -1.82450040361471
C            7.48024501307376       11.39433180337715       -1.61191801903643
C            6.19895397615303        6.09883398630447       -0.62126365280012
C            5.79172673142485        4.78751691431827       -0.50465013027115
H            0.87067060602506       -0.80088575257490        0.04344810222011
H            0.81487131598954        0.74038917784283       -0.81855322631615
H            0.83298930787668        0.71683605874784        0.94720646700282
H            3.31818325644971       -1.66032503572182        1.52564173410784
H            3.34006350186711       -0.15296095375151        2.44690700494285
H            4.77598214932321       -0.66253576923616        1.55373804695203
H            3.27866429308462       -1.66879146910021       -1.45198451529121
H            4.74321686885198       -0.68161297750072       -1.50568168873186
H            3.29745367450833       -0.16385989364615       -2.37769041377286
H            2.56764012814670        5.29088660940020        0.30720509630453
H            3.29515091888232        7.63390281691953        0.09881286264685
H            4.75326125430146       11.80346400050929        0.23352855670517
H            7.00620047184344       18.17550264953289       -0.20505046219118
H            7.51617388080454       20.53163050297642       -0.69911503737373
H            8.66328417454905       21.12688537296515       -2.79006377908864
H            9.30030836451590       19.36717205285714       -4.38382994772776
H            8.78811467485185       17.01298302120976       -3.88379248603911
H            8.11283004531072       10.63817923468403       -2.04898978957178
H            7.21664318091642        6.32966489757321       -0.88615699689156
H            6.48943805611351        3.98595148834572       -0.67743579882689
