101
 energy: -15.241635279733 gnorm: 0.000419737216 xtb: 6.5.0 (97a52f5)
C            0.73221523127194        1.06169186208960        0.04073340157860
Si           2.55344132416791        0.70605798046111       -0.16541633972792
C            2.72931869785066       -1.13046285923408       -0.45489082096529
C            3.09270526360930        1.56170216277782       -1.73480857542781
Si           3.75455239703368        1.44333725439670        1.67415438057296
C            3.05010203723528        3.10895260651435        2.03725285689941
C            2.06303202183579        3.35994058678100        2.92770643929041
C            1.69443671690899        4.73061387248249        3.01536864387678
C            2.40549041212144        5.54420485672428        2.17880178429504
C            2.25569231160087        6.97383439832487        2.04696742773451
C            1.39694422726327        7.76568885233205        2.76084219627375
C            1.46272938718235        9.13686591761439        2.42193402781945
C            2.37264334157980        9.42460328613455        1.44040459217813
C            2.65311008963209       10.73112517680958        0.89455286268569
C            2.08180431132012       11.90962516177557        1.28473763039563
C            2.55668303437127       13.04030785015636        0.56450657538208
C            3.48532792480550       12.74673628737952       -0.37449646260760
Si           4.29772274238724       13.99533240302368       -1.46166356107786
Si           5.80975197519032       12.89340181618582       -2.83728082038913
C            5.05372025528508       11.46258464485510       -3.76979565230422
C            6.54577824070755       14.03513534721469       -4.11837584795365
C            7.23303660577191       12.19307064534211       -1.85270430647479
Si           2.64202068606851       15.05845746787470       -2.69229586754776
C            1.13919673751730       15.50259573667779       -1.67646219434686
C            3.27005249837839       16.64679797973050       -3.44674726119942
C            2.03679072695152       13.99809627060290       -4.10471712056892
Si           5.40083150064289       15.42124065995961       -0.00141364300177
C            4.27357491207398       16.71962492809050        0.72739345591252
C            6.12255644504831       14.46959830348531        1.43371374994029
C            6.81274496788348       16.33093371352383       -0.81753092599553
S            3.79890157840622       11.03779676553625       -0.39007421539562
S            3.16598468025660        7.95661200490886        0.92827461933841
S            3.54966681887068        4.58495720860159        1.26895315247822
Si           3.44236529270527        0.08349253000464        3.53216220107558
C            4.57193866931948       -1.40228114314688        3.48071149358909
C            3.80580815674250        0.96686503280326        5.13759512993546
C            1.70297137193395       -0.58592691750194        3.65917508676274
Si           6.01613507118539        1.67467615213653        1.19566276371241
C            6.72046204194771        0.10372976103303        0.47301069176327
C            6.41047473944055        3.03444165545010       -0.02262229860877
C            6.99670572358767        2.04615305801307        2.74010357513385
H            0.18079433837502        0.73419525645981       -0.83644524422313
H            0.57834420722702        2.12910933174334        0.17499299953193
H            0.34683889365751        0.54100354932903        0.91315551642788
H            2.16505645487678       -1.42836063450316       -1.33451868880971
H            2.35698256701387       -1.68165900228014        0.40433412958241
H            3.77523490966553       -1.38409197554100       -0.60579496702982
H            2.44030348579398        1.28528069570981       -2.55868616768649
H            4.11149117863365        1.27688480147210       -1.98332389825817
H            3.05214343004947        2.63933272156929       -1.60004834386877
H            1.59427276413750        2.58284166073616        3.51197055718769
H            0.92531148060898        5.09349045811133        3.67910119134642
H            0.73062767130245        7.37793773407805        3.51549578297577
H            0.85051120075404        9.88925124615388        2.89405826212943
H            1.34176050182123       11.97701339003921        2.06681720384333
H            2.21609710057725       14.04766044741326        0.75172697320497
H            4.26710871619998       11.81754331807810       -4.42964174674013
H            4.62692352977923       10.74781795959759       -3.07168158398251
H            5.81090605182001       10.96064063969371       -4.36611035785524
H            5.76596253868180       14.39823810370817       -4.78250675811809
H            7.29223830022890       13.50921675520252       -4.70753259733877
H            7.01677381622134       14.88627412548183       -3.63433737670781
H            6.85477702398946       11.52712418865203       -1.08163090733879
H            7.79173007177862       12.99556008717786       -1.37884570738307
H            7.90249121865039       11.63516929537994       -2.50187721997347
H            1.42849558694966       16.12319398685538       -0.83271071446188
H            0.66444878649708       14.59975922529652       -1.30191827966024
H            0.42250309823878       16.04876121432790       -2.28380209787942
H            3.57317659243449       17.33711496939027       -2.66421856854981
H            2.49170038110904       17.11342238039746       -4.04447459948895
H            4.12687323447907       16.44293658794668       -4.08333244099820
H            1.72121614577901       13.02805331133230       -3.72974893534758
H            2.83353207169739       13.85279332259021       -4.82921213594485
H            1.19533930725292       14.47459303612585       -4.60049572748201
H            3.45969539019477       16.24589515127985        1.26929337748198
H            3.85553603313963       17.33737199852673       -0.06264503819401
H            4.82748782650939       17.35510073888756        1.41308693452211
H            5.33032145005058       13.95933556473490        1.97500932626300
H            6.63649667892074       15.14335191895358        2.11394943178738
H            6.82977403433891       13.72854693855621        1.07120505282193
H            6.44704074914805       16.89129188430535       -1.67393311988532
H            7.56631436142891       15.62515820917075       -1.15616232398586
H            7.27087091962082       17.02189530962546       -0.11501158133288
H            5.60897472219260       -1.08623008490952        3.55463222458996
H            4.43444161955411       -1.94039483337177        2.54653450773989
H            4.35049410032578       -2.07124967693408        4.30795352738479
H            4.80644413046141        1.38964437929210        5.10959790079469
H            3.74197349520408        0.27247066650443        5.97094203683839
H            3.09291259021657        1.77105791465951        5.29696654301227
H            1.48068399038796       -1.21018033660643        2.79803401376048
H            0.98548290039148        0.22922511128069        3.69309055778704
H            1.59639938276240       -1.18324849136059        4.56068280045518
H            6.23790138633109       -0.11663789516812       -0.47543571281312
H            6.55405654066837       -0.72865962119441        1.15118570230236
H            7.78872838391125        0.21246597990840        0.30619915880794
H            5.87386677311093        2.87078033399265       -0.95300814607593
H            7.47680036987274        3.05489326589211       -0.23097742404967
H            6.11533056505822        3.99709455285651        0.38554479208199
H            6.91388340875903        1.22258584338529        3.44406341052418
H            6.61473386225961        2.94851225369914        3.21021257594991
H            8.04497651077747        2.19378945841642        2.49483909535513
