10
 energy: -1.326879021305 gnorm: 0.000667821134 xtb: 6.5.0 (97a52f5)
C            1.00363304902198       -0.06639314664944       -0.01897758177439
C            2.49579365466308       -0.08043657830171       -0.03326674823292
O            3.09977700723151       -0.80964099236001       -0.77539937531349
C            3.21426437006683        0.82354014305020        0.88674241356784
Cl           2.77544574802254        2.48029521435719        0.52236478501651
Cl           2.77544886382429        0.43009281488920        2.53683639603738
Cl           4.93217364161078        0.60343450654726        0.66273003705474
H            0.62296963378400       -0.78187529439985       -0.74714990982452
H            0.62211841160192        0.92107955004396       -0.27659329046208
H            0.62211562017306       -0.34132621717680        0.96381327393092
