79
 energy: -16.726092083549 gnorm: 0.000706534427 xtb: 6.5.0 (97a52f5)
C           -1.56404227318076        1.14840027844832       -1.18741172631931
Si          -0.58228641558761       -0.05257016742660       -0.12562378411306
C           -1.61363364755486       -1.28411376082158        0.85139048191077
C            0.57663415463649        0.90443172476522        0.92683120657402
C            0.22303496622537        1.96919800640819        1.81164694148770
C            1.13920084852474        2.92550486611263        2.24149452730093
C            0.80229812449917        3.98288546906347        3.07782335806251
C           -0.48370870049607        4.19173844399560        3.55160450965948
C           -0.80667428039827        5.31232612967609        4.44426181021008
C           -1.98936856739739        5.32120051759543        5.18605604302046
C           -2.28957380322527        6.34689957173108        6.05214118426477
C           -1.41704140149489        7.40597598635167        6.19390367650593
C           -0.24800728769612        7.43259244033916        5.46083733934423
C            0.05485078004787        6.40320545265644        4.59744885105164
C           -1.48721970948564        3.24747212329397        3.14051290607800
C           -1.13736800042473        2.13816535676730        2.26590480576857
N           -2.16930853163661        1.37603165917160        1.97503254192741
S           -3.49352777074314        1.97735376424281        2.73341359911134
N           -2.76760670779097        3.25135190518506        3.46368375677763
C            1.82884001537773        0.48544217076852        0.51229487453903
C            3.09062003536125        0.96695706612611        1.13028046684844
C            4.02076877640155        1.69336816748578        0.38604112475067
C            5.18900338205899        2.13662207028225        0.96282904477850
C            5.45317666196152        1.86315000098370        2.29019016248736
C            4.54608202000825        1.14213331570222        3.04113519940465
C            3.37631360730070        0.69599874679624        2.46916190992912
C            1.88594661268064       -0.50123499984096       -0.58992325372808
C            3.20316922355697       -0.91805977081655       -1.13430466808120
C            3.54206718179376       -0.64675049686738       -2.46063162758736
C            4.76372274089478       -1.02998274672000       -2.96570466080209
C            5.67132837506281       -1.68720756994541       -2.15899744693285
C            5.35462778837848       -1.96041922249432       -0.84311794962585
C            4.13400127300558       -1.58047662607877       -0.33343652443839
C            0.68241442512495       -0.97230457853638       -1.08436656560219
C            0.43351256648675       -2.04768620497819       -1.99150923096078
C            1.41339858789773       -2.96902230059208       -2.35064593504661
C            1.17995411658312       -4.03330013707648       -3.21303570853172
C           -0.05715964451156       -4.28556598991334       -3.78607332136955
C           -0.26910106898942       -5.41325571892569       -4.70290951053991
C           -1.40508064697847       -5.47655546686975       -5.51198728855570
C           -1.60201120725683       -6.50951267127378       -6.39880002246029
C           -0.66924231573757       -7.52098947268182       -6.49664285114143
C            0.45620874590911       -7.49335532446441       -5.69857591713435
C            0.65513730150221       -6.45701676567446       -4.81355781936850
C           -1.12283628835465       -3.37983672503975       -3.45046167924954
C           -0.88119822502895       -2.26332857671290       -2.54846665659548
N           -1.95853639865864       -1.53900600562816       -2.33630108640680
S           -3.19851253606451       -2.18402095764190       -3.19440401498862
N           -2.37413294500590       -3.42776131187782       -3.86955092430170
H           -2.19997426895948        1.75839411700152       -0.55283007521241
H           -2.18435059819746        0.61034306006486       -1.89658358246876
H           -0.88457414995695        1.79616161720766       -1.73297751091792
H           -2.33755902745925       -0.76588322849012        1.47165905461805
H           -0.96896032589134       -1.88436843278271        1.48626575331396
H           -2.14229057242272       -1.93935919932101        0.16545578968316
H            2.15365846820368        2.85530134025781        1.89786844038126
H            1.58340413917525        4.65458150778224        3.38506782589306
H           -2.67988903615443        4.50791402889518        5.06813411314553
H           -3.20779641594576        6.32537886368744        6.61626751514044
H           -1.65075449993889        8.21187702253251        6.87024492008875
H            0.42990231289568        8.26431041290194        5.56331541138080
H            0.95883387343264        6.45405737216644        4.01749158822196
H            3.81056655771603        1.90134502298343       -0.64892669977995
H            5.89921891585326        2.69635362246671        0.37652574113207
H            6.36856175981238        2.21146209264127        2.73996306002861
H            4.75369395978167        0.92878803226506        4.07690436342456
H            2.66445965813451        0.13450702146285        3.04941472352174
H            2.82972040090704       -0.13495215998458       -3.08460739115828
H            5.01164798781309       -0.81694476192480       -3.99262085980496
H            6.62782492419193       -1.98555125161636       -2.55604511260895
H            6.06523795926448       -2.46983956338509       -0.21307734558469
H            3.88319615834381       -1.78836716881449        0.69243719863032
H            2.39485109970769       -2.86437617661301       -1.92831573307449
H            2.00617559302814       -4.67574379159691       -3.45809233491639
H           -2.14194849976787       -4.70055069506143       -5.43084555534386
H           -2.48683687499869       -6.53082354054055       -7.01387175803970
H           -0.82148478759119       -8.33267813103265       -7.18915072544122
H            1.18130253922971       -8.28790214823007       -5.76725100981791
H            1.52695881220369       -6.46696655000753       -4.18466995240444
