104
 energy: -22.449093385528 gnorm: 0.000638152038 xtb: 6.5.0 (97a52f5)
C            0.56358064553357       -0.84614876551115        0.00607689455402
Si           2.33032697249721       -0.26739458607842        0.28337890787043
C            2.75226415517283        0.20476060382929        2.03310633059522
C            4.06904101257464        0.45796044182343        2.35047809709275
C            4.41229463469600        0.82246537606368        3.63761578190557
C            3.43337956904060        0.93409062729368        4.60484656789517
C            2.11381760171822        0.68144626950877        4.28609702923362
C            1.77426083883756        0.31592552761082        2.99818902566287
C            2.74343156002114        1.08108033091611       -0.88746980485525
C            2.12097617863461        2.38535553492968       -0.89082240465179
C            1.57267701706746        2.90234813750616        0.28977029564103
C            0.97612956578143        4.13667966218272        0.31419376000066
C            0.89525132338621        4.90992491472761       -0.84166567275989
N            0.28430164696880        6.20659165046296       -0.81455117248953
C            0.81249452972186        7.38674518171743       -1.38419419293596
C            2.00941551651980        7.61879513531766       -2.06089180089575
C            2.28748287763302        8.89155892709068       -2.49662800483521
C            1.39574143369158        9.94230055019584       -2.26646988366877
C            0.21653136246805        9.73370475836094       -1.59146051855561
C           -0.07802559184347        8.44626884711840       -1.14183902090681
C           -1.19458150033300        7.90778732802033       -0.39959746797044
C           -2.36226763414912        8.49101250679474        0.09313967115307
C           -3.26455215051185        7.69710590268300        0.76041850417770
C           -3.02492795013082        6.33249481180293        0.94117299493487
C           -1.87901474897131        5.74530381217264        0.46235201251850
C           -0.94835153705187        6.53758749106120       -0.20871797641883
C            1.42453405387630        4.39884377513063       -2.02454599163878
C            2.02100794918478        3.16415992379193       -2.05073677547117
C            3.64843413814917        0.53111909626420       -1.75696161094477
C            4.26622339065821        1.29288428560103       -2.87106798536135
C            4.10636936093185        0.88158602435272       -4.19375390797358
C            4.68798218898107        1.58695013174353       -5.22340296447185
C            5.43937126814127        2.71371126193311       -4.95345799730576
C            5.61045867681996        3.13370656613506       -3.64911662340596
C            5.03195559793474        2.43046331211782       -2.61616794906054
C            4.07317180690770       -0.87363623957163       -1.48495543638604
C            5.04262429558248       -1.53933951659762       -2.39186583226514
C            4.65046461237671       -2.62029438001625       -3.18123536176169
C            5.54966769642969       -3.23775675919827       -4.02164884572906
C            6.85309916122465       -2.78708936271941       -4.09239797248262
C            7.25631817676351       -1.71458840141551       -3.32153711641187
C            6.36108310403808       -1.09412142169839       -2.47933116208599
C            3.55000177085372       -1.47345927268509       -0.36737700026153
C            3.88457162167790       -2.72115014984804        0.27831601502624
C            3.11639443176158       -3.17416143749389        1.35886208767446
C            3.42978645650991       -4.33507932250428        2.01838104067928
C            4.53125412782051       -5.09589507183273        1.63521063482671
N            4.86485012121452       -6.30297019290195        2.33266630929032
C            5.20436811409826       -7.54155862246803        1.74387859907439
C            5.28573712082703       -7.92667200899035        0.40624523721973
C            5.62525656669079       -9.22457805704530        0.11073421569559
C            5.88100735731518      -10.15074078500136        1.12511811356115
C            5.79482535126972       -9.79105377552013        2.44903953659466
C            5.45007205527978       -8.47640419875373        2.76379915313541
C            5.26201430524330       -7.79703084525308        4.02501464050862
C            5.38664542019197       -8.22274767859611        5.34774981995302
C            5.15877039593240       -7.31644827381522        6.35592767251766
C            4.81501272221329       -5.99315574725819        6.06791365668111
C            4.68787288380062       -5.56058853627933        4.77031799265143
C            4.90380942690029       -6.46964240099304        3.73514294447035
C            5.30886303268775       -4.65084623792874        0.56918098922949
C            4.99572463484979       -3.49028690202713       -0.09112599290576
H           -0.12712911997869       -0.02969224571647        0.19641746461909
H            0.32134730828589       -1.67361831674967        0.66629602328134
H            0.44440662414507       -1.17220367883397       -1.02317743600512
H            4.82142350758987        0.36660422014242        1.58488894242974
H            5.44265054401328        1.01906586868404        3.88541556593679
H            3.69942200394505        1.21842425256021        5.60993922616269
H            1.34947288357541        0.76807373044153        5.04111703754676
H            0.74846702934519        0.11453586980668        2.73882867201369
H            1.64104880840483        2.31848411249093        1.19027020249621
H            0.58430711341797        4.53474120298458        1.23375317418605
H            2.69926534823973        6.80975498051554       -2.22091334940009
H            3.20878863810021        9.08426557378677       -3.02162587197601
H            1.63919715871869       10.93096440641286       -2.61960375065198
H           -0.47228888170477       10.53837306541053       -1.40349248981587
H           -2.54178225849983        9.54117992425197       -0.05600098938024
H           -4.17227338407395        8.13128641384906        1.14639481250091
H           -3.75247836819976        5.73177316267780        1.46208792453830
H           -1.69703164902229        4.69265829454180        0.58399573315451
H            1.33997576470827        4.98224906159824       -2.92464708731707
H            2.40996867209976        2.77915260307963       -2.97592529784329
H            3.52287030190712        0.00033649809152       -4.39799089519549
H            4.55808427018712        1.25760705676020       -6.24142307144075
H            5.89386522382249        3.26446893902131       -5.76089039464156
H            6.19763915833868        4.01273426770380       -3.43883541125417
H            5.16160048745134        2.75225705044912       -1.59704717684352
H            3.63309993533322       -2.96695900826335       -3.12013628897735
H            5.23561251087189       -4.07408419575448       -4.62464610954503
H            7.55540240757492       -3.27146932884498       -4.75116893302581
H            8.27286500617391       -1.36126215288953       -3.38039973233769
H            6.66814793126316       -0.25571164531111       -1.87795059086227
H            2.27572403946885       -2.58612006359950        1.68188788891057
H            2.81917074513858       -4.68033766982013        2.83418255044587
H            5.07197864651960       -7.21419033024941       -0.37004287289517
H            5.69283224804421       -9.53490080215122       -0.91916015689787
H            6.14549539920894      -11.16242840772328        0.86451035729452
H            5.98382992400441      -10.49937783649267        3.23632532645548
H            5.65895225649221       -9.24161054594121        5.56005532027435
H            5.25058463331897       -7.62849995390276        7.38335677185148
H            4.65045286751652       -5.30082329350739        6.87734995505180
H            4.44174670916191       -4.53885703456874        4.54335889205949
H            6.17752101023761       -5.22017499526171        0.28810235643396
H            5.62570582079731       -3.15540880573987       -0.89331637646561
