104
 energy: -19.083320507274 gnorm: 0.002130309975 xtb: 6.5.0 (97a52f5)
C            0.63150955378603        1.11395065806362        1.07673783613473
Si           2.26998425074819        0.22082235297862        1.30219182079002
C            2.59195434672496       -0.43048246559543        3.01654952586046
C            3.53080367112541       -1.42266323195203        3.19069928809117
C            3.86194064757226       -1.85231896322666        4.46023580727523
C            3.24507773148873       -1.28820774936007        5.55840761945255
C            2.29848308410739       -0.29787934274642        5.38506522727413
C            1.97273888334907        0.13108019824225        4.11296187231863
C            3.65074559112642        1.29678866626700        0.76331621588041
C            3.97259119967388        2.52994126883667        1.32111090001204
C            3.85619917830120        2.91342567493651        2.61706046296782
C            4.22978886085943        4.15208907360090        3.08195158921308
C            4.71795838648147        5.13071350335293        2.28936984243601
C            4.91288143694343        4.99515282763525        0.97457386452343
C            4.51742696492271        5.87842452663057        0.07079504730313
C            3.88189671843684        5.50326039527520       -1.07104761790331
C            3.47142338778961        6.36949259407104       -2.04904113156632
C            2.89149319979642        6.03967510985301       -3.28053593652096
C            2.44681721727037        4.82107472308584       -3.76883021277014
C            2.17097705067355        3.65110847247852       -3.11266474062174
C            1.78758594075802        3.34981441249585       -1.82231009363727
N            1.19484369342333        4.05313949543920       -0.88107897082552
C            0.32303803699996        5.01483720299870       -0.91922563489217
C           -0.56919929473756        5.49640877659683       -1.80559323304135
C           -1.19976762816841        4.96683798743319       -2.83334588446581
C           -1.14261767584165        3.75679374562079       -3.28071772609902
C           -3.84959540202660        8.49500139899960       -1.49500958544475
C           -3.87043180076694        7.23993367945843       -1.80972630794388
C            4.04145123167322        0.79639650843181       -0.45372093013556
C            4.79188187472306        1.62708268297873       -1.42582517306789
C            4.46890099005030        1.59961210922602       -2.78274420577506
C            5.14983835771523        2.38181076967686       -3.68892021255431
C            6.16261373352481        3.21539803283695       -3.25921122910285
C            6.49516290569073        3.26018214871291       -1.92024824860196
C            5.81895168329247        2.47480682585720       -1.01331928948363
C            3.59981945497094       -0.60395599595639       -0.75516363617524
C            4.26660786229755       -1.43117777007301       -1.79007820713716
C            3.66885138834810       -2.56149074456440       -2.35434726659195
C            4.28351471123583       -3.25679449232242       -3.37319484760427
C            5.52706776173801       -2.87676016180279       -3.83094378167252
C            6.16644609728391       -1.80472094623701       -3.24690413985279
C            5.54863059163927       -1.10141964637749       -2.23743856998516
C            2.53857582866543       -1.04103143763883       -0.00503571078903
C            1.82952687343983       -2.22997890173082       -0.11233979369636
C            0.67641795609951       -2.57298488546555        0.51112057420420
C           -0.02336756373649       -3.71988330209965        0.22641679998604
C            0.37205825640370       -4.64349708056961       -0.67549710679190
C            1.49749458009008       -4.60920304823284       -1.38604312150265
C            1.96691873117123       -5.72075446400337       -1.92556569307488
C            3.25147296653366       -5.96998888104230       -2.16914555558808
C            3.74326294828921       -7.08481186713092       -2.71956436280703
C            5.07863257650267       -7.38151006656797       -3.01823397879872
C            6.26123798349991       -6.70193884443707       -2.77768758055826
C            6.56898032580216       -5.61047258287916       -2.01256867877908
C            6.06556129151749       -4.85733393130152       -0.92100660692586
N            4.97524146536801       -5.10299345582649       -0.15634016719505
C            4.71279058663904       -4.31448253514082        0.83217500457172
C            5.48940433882144       -3.26445848960678        1.13990847885196
C            6.56627488970095       -3.00548022714153        0.43580701288431
C            6.87833538040750       -3.78542954151103       -0.59705983634264
C            6.40217782622885       -4.64231386167954        5.05262955501471
C            7.05004529906398       -3.82398546951898        4.28660550570694
H            0.65744774742810        2.07109939549549        1.58970753706609
H           -0.18543599707466        0.52181151107014        1.47831137006737
H            0.45361109913833        1.28949252175642        0.01961970562510
H            4.00121220557474       -1.85794303812855        2.32679642229964
H            4.60719900138897       -2.61924586293190        4.59317705872863
H            3.50297970714339       -1.62193918146287        6.55035665756218
H            1.81492581988422        0.14129920253822        6.24249563475344
H            1.23844079565001        0.90576014536596        3.96754981482725
H            3.46712097249969        2.19154417505894        3.31541500412476
H            4.11546874285183        4.37144020508875        4.13142082979408
H            3.75818850589506        4.44637410123949       -1.22201663299686
H            3.67635466775804        7.41321951635370       -1.86762282332025
H            2.83013420018327        6.86227138980564       -3.98012810388654
H            2.26086782343477        4.78166339402618       -4.83345377931898
H           -2.68182818899173        7.00063915710477       -4.78460511752883
H            6.70937225033962        4.63976677021720        0.92102822077938
H            6.58521750637388        7.70402419176946        0.52266873815460
H           -4.41411954694105       11.35908697448108       -2.54835329064557
H           -2.97024670285418        9.05186059872132       -1.34045065334976
H           -3.00913203202737        6.65240935953815       -1.94526311994987
H            3.66796186574817        0.96018144487126       -3.11275890751499
H            4.88373744041750        2.35046734360700       -4.73297308804695
H            6.68784895086638        3.83553005418830       -3.96728842100542
H            7.27746295127674        3.92015997039345       -1.58188525689798
H            6.06773508180039        2.52204979075305        0.03243613986190
H            2.75603824474872       -2.96106203025982       -1.94631933278362
H            3.79975532079009       -4.11957302817920       -3.80006395704487
H            6.00767146043289       -3.43171520515605       -4.62013718481942
H            7.15016636966789       -1.51676259878692       -3.58014964909168
H            6.06814208832018       -0.28098652061027       -1.77581383756589
H            0.27983641321404       -1.89153952840251        1.24546294917746
H           -0.94626853491280       -3.90691494868425        0.75179763827111
H            5.95620185878450       -0.26446007449609        1.31570906965490
H            3.00986638492069       -7.82548616008738       -3.00167527340402
H            5.20394132887328       -8.29682631641762       -3.58147832839877
H            7.12481995253531       -7.10882973209023       -3.28641286359466
H            8.77222725511909       -3.98290186016353        6.93022153337752
H            0.70262357448443       -3.67618009619248       -2.94149503703422
H            4.17385525965633      -10.01299779414169       -1.43476506995834
H            6.60495926593341      -13.76751753710474        5.56342126411866
H            5.65170089354508       -5.29710007649188        4.71580519787602
H            6.87301957053739       -3.72084106579753        3.25523409557524
