104
 energy: -20.763125156799 gnorm: 0.023241599003 xtb: 6.5.0 (97a52f5)
C            0.18329448465616       -1.04998817110720        1.48436726200614
Si           1.90869925474373       -0.71058399355585        0.82017650656230
C            3.18582592144539       -0.18401781296537        2.06509525880244
C            4.28983086566042        0.51513136614229        1.62128045049835
C            5.27981248462008        0.88734994021539        2.51031399671929
C            5.16506536478120        0.54832895224407        3.84377192740885
C            4.06080232428527       -0.15557503794767        4.28662144818824
C            3.06911352922953       -0.51804056876104        3.39608117339699
C            1.85171551883142        0.52102271833570       -0.52954293707323
C            1.25073465613101        1.83672904984043       -0.42214287531243
C            1.53466392829678        2.68450791600237        0.66068653773344
C            1.01679325766825        3.95925809864805        0.69410684672251
C            0.19675674026669        4.39381983535379       -0.34743128290968
C           -0.06896654603559        5.72924534273067       -0.54791680599729
C            0.40017740399189        7.00580242543821       -0.28253292094768
C           -0.34044730604542        7.80998363437540        0.56806790926517
C           -0.50624809347101        9.09248105948853        0.31596474730442
C            0.06273165226214        9.70708660584702       -0.75411547040787
C            0.92075694038570        8.97302133850243       -1.56168659742957
N            1.14837681658248        7.62038421137270       -1.33863228253440
C            2.21757104195654        6.90442031267342       -2.03283796687501
C            2.48718928825168        5.52873784601214       -2.02483797628280
C            3.55351640497866        5.00843934179143       -2.71858743229258
C            4.40782391227125        5.84944143623767       -3.42097712683605
C            4.18224096684346        7.20178004311829       -3.40037544625287
C            3.12067029876245        7.71268784128980       -2.70624159848853
C           -0.13209105938527        3.52852766466931       -1.34847963639958
C            0.36621088960032        2.28984728228162       -1.40609643263604
C            2.52999220837904       -0.04133100637695       -1.58058329453689
C            2.96488280065814        0.73703905644949       -2.77297428719216
C            2.10911514638796        0.96530037028348       -3.84938304086241
C            2.54533886023690        1.65330351168355       -4.96104395317608
C            3.84500443592984        2.11739227959415       -5.02471241319160
C            4.71011211369211        1.88872394914665       -3.97440685589617
C            4.27523078035788        1.21003873481761       -2.85682327359839
C            2.94099907753854       -1.46124691146675       -1.40745005565935
C            3.77891888989782       -2.13823249828430       -2.42511162073012
C            3.39023520499748       -2.19780518702326       -3.76268513620867
C            4.18680252053234       -2.81899730837304       -4.69854417035046
C            5.38354055291778       -3.39422228225025       -4.31823538174658
C            5.78326786480972       -3.34510364829240       -2.99737099415110
C            4.99154611625075       -2.72089240192243       -2.06067280396570
C            2.56836201434626       -2.06066626959088       -0.23186057659809
C            2.69318940086561       -3.43966496941904        0.17260457234875
C            2.74530181387348       -3.77576974922063        1.53122007192211
C            2.89232947859458       -5.08291858020500        1.91708230816031
C            2.97896247629606       -6.08984529931197        0.95946391259557
C            3.29766817695013       -7.37578835739524        1.31779280397922
C            3.67718292864614       -7.76685325132551        2.52768039273353
C            4.60609983497439       -8.68803627316831        2.78560038972169
C            5.68419531289910       -9.02738855721986        2.10016259270444
C            6.44851209356987       -8.44418835103614        1.16413657841546
C            6.73533279589371       -7.16898230365664        0.81102038096495
N            6.29605120581386       -6.05381926117410        1.41101698775939
C            6.59954282226391       -4.70977192440978        1.15457549074314
C            7.52687714419297       -4.23339501482736        0.21334443086515
C            7.70940366533278       -2.88154281187238        0.05749679802248
C            6.97309486203018       -1.98592020240347        0.82798003030182
C            6.07358698851193       -2.45672085893667        1.74981061515250
C            5.90530253538615       -3.79322829933269        1.90997337343846
C            2.88752193925355       -5.75700259928054       -0.35781583453234
C            2.74745993767819       -4.48647764217110       -0.76069814286244
H           -0.18282964574817       -0.17958283217197        2.02119794454209
H            0.19672392193798       -1.90246149025646        2.15725255033155
H           -0.49074154066041       -1.26250410501006        0.65928770492057
H            4.37492312654731        0.75288797413348        0.57441559850958
H            6.14217261836055        1.43387214483382        2.16184205782381
H            5.93839134720734        0.83195731344953        4.53979954548292
H            3.97078034014131       -0.41971280842118        5.32770211717385
H            2.19920454234869       -1.05769653290687        3.73324947628725
H            2.19487709051652        2.34005817871242        1.43857441222796
H            1.28907053084776        4.65935523747384        1.46411391598082
H            4.18561287784151        3.04950889241308       -0.30420630430796
H            2.27561748062396       13.79552911131671        8.08095142504348
H           -0.16115906726731       10.73987655385340       -0.97789531315011
H            1.39672738597529        9.46275983575711       -2.39536400211258
H            1.85564148407222        4.87283891379957       -1.46130847031772
H            3.71800644695519        3.94136344663177       -2.74116818848646
H            5.22167484762945        5.43840169342493       -4.00208821753354
H            4.83163285321363        7.87822075432556       -3.93438621110441
H           -1.62699053763449        6.41150033522103       -1.48954225988747
H            0.08581940494107        1.64036019082693       -2.21719783704496
H            1.10841467105909        0.57014685944579       -3.81629183857198
H            1.87329253214568        1.82529510427772       -5.78545241313203
H            4.18510174943089        2.65159493515632       -5.89738760260845
H            5.72805116585122        2.24139860006392       -4.02941483100133
H            4.94972972545495        1.01917765300268       -2.03985037058990
H            2.45591915343452       -1.75064660253750       -4.05545956257627
H            3.87612676085081       -2.85421472596971       -5.73028575335969
H            6.00652916351861       -3.87906704103829       -5.05198672039598
H            6.71646209954936       -3.79280486713010       -2.69782645475284
H            5.30219779539550       -2.67135163846962       -1.03189308299266
H            2.71979588947034       -2.98900080883220        2.26452288365801
H            2.98290954598767       -5.34277631865950        2.95735686523220
H            0.21961259856251       -1.76445597030580       -2.10309652739779
H            2.27440572172923       -8.37232662440545        0.27879102817341
H            1.63787620090095      -15.64726045399321        7.45499743634097
H            7.40944756217389       -7.05565690686548       -0.02262106111079
H            8.08886702154411       -4.93152859217644       -0.38177289372575
H            8.42003813068908       -2.51162270714991       -0.66351359428796
H            7.10903472984338       -0.92487222899993        0.69911759453082
H            5.49146181327733       -1.77761364673052        2.34765808275221
H            8.79981137361695       -3.12593680869038        3.00696389294830
H            2.68381336963951       -4.26906553361846       -1.81244451297219
