100
 energy: -17.753629601238 gnorm: 0.000723130867 xtb: 6.5.0 (97a52f5)
C            4.37848682134439        0.97198264575928        0.16347504595505
N            5.65424675100737        0.37116530405465       -0.21285349611714
C            6.41124978831984        0.76212467271400       -1.32954769879497
C            7.30509447467047       -0.22861509109933       -1.60141438859600
N            7.12545217309857       -1.25372061524074       -0.65729518233567
C            7.63659414731002       -2.62848568889705       -0.78881618380287
C            9.07134065895364       -2.68975255692968       -1.30032966815482
C            9.70725243558367       -4.07387313082018       -1.14451637841984
C           11.16509584941528       -4.14862152903063       -1.62533513329132
C           12.14207659774350       -3.24301533907315       -0.92302620705649
C           11.85243918016651       -2.65158489536576        0.31301442636081
C           12.74006382651756       -1.81405630451624        0.94404216383216
C           13.98199850372061       -1.58390595439085        0.36123341730950
C           14.29349008658330       -2.17355175901605       -0.87268686352359
C           13.37489879668039       -3.00196174765628       -1.50878798741902
C           15.61091222214957       -1.70062366976569       -1.25186433497809
C           16.43002176570694       -1.98338889965868       -2.33952305024698
C           17.66576527619050       -1.37957123108530       -2.41204607730750
C           18.09179473569436       -0.49844540425393       -1.42122227881485
C           17.29103503607850       -0.20749884394537       -0.34221062637796
C           16.04137646219706       -0.81154469033253       -0.25198815131118
N           15.04930333280109       -0.73732168165036        0.75162078725659
C           15.12763327416568       -0.04081491057484        1.98909224850784
C           14.62715704958035       -0.66739651245204        3.12530696101681
C           14.59276262918242       -0.05301316802540        4.36049204691265
C           13.90572900693187       -0.69464874821589        5.39280738756832
N           13.22801759092575       -1.22534351518797        6.17407292889592
C           15.15405803993576        1.23114242728252        4.49814833522272
C           15.12824789678774        1.92779891324511        5.70804119750231
N           15.09879856942610        2.53856558404597        6.69698416217308
C           15.67504451593001        1.85405989636123        3.38084688079186
C           15.64197615315819        1.27927587770542        2.10892378623849
N           15.83044187175998        2.14884697027664        0.98370382437189
C           16.57905356004316        3.35621628340267        1.08250603582786
C           17.74774504725779        3.63367484034218        1.78888853228187
C           18.24493937268816        4.91568924640604        1.77562652895294
C           17.59700312762606        5.92927009570100        1.07454067257378
C           16.43939144635239        5.67540745854425        0.37346554901690
C           15.92746496121923        4.38244933035906        0.37410784105505
C           14.74499255871034        3.80399633623755       -0.22725478955334
C           13.63242653097859        4.36795370423641       -0.84946294587487
C           12.58303759141367        3.54951325256931       -1.24087025719009
C           11.25341541052732        4.11789416813942       -1.64493075245736
C           10.26305495650519        4.15715445173938       -0.46490161224994
C           10.06908119212276        2.78954979203824        0.20089815474664
C            9.18114531918102        2.77908672791080        1.43455831990510
N            9.30018873241012        1.49310672070755        2.14436671077788
C            8.74239882312813        0.28280228417591        1.71741919499372
C            9.22945668079845       -0.71214557865087        2.50877935476847
N           10.14228210781483       -0.14638655318707        3.41499904109272
C           10.59285568385143       -0.79330062203829        4.63929155328178
C           10.19739536068879        1.24004544517230        3.19560780748755
C           12.69825619601312        2.16419164293135       -1.07443960476619
C           13.75546092126641        1.61129575146149       -0.40303490078044
C           14.77586619310953        2.42892306497338        0.06377308035216
C            6.05546460037620       -0.91357131848138        0.18592963983018
H            4.40374507842002        2.04568901862939       -0.00904167114943
H            4.17593414387980        0.79031361650867        1.21686196471626
H            3.57679224604843        0.53780211020653       -0.43062761934710
H            6.24509895199487        1.65708853109157       -1.90530945555020
H            7.98795777336479       -0.26209825470089       -2.43265403340959
H            6.96266827306497       -3.18608471859330       -1.44513184115770
H            7.56817257346401       -3.10099819908106        0.19474572720370
H            9.66672397233314       -1.94094664689549       -0.76797442008928
H            9.10557138927478       -2.38288329111452       -2.35141021313563
H            9.09896689351042       -4.80751442760618       -1.68822463433287
H            9.65073991506121       -4.38848870476100       -0.09665154090634
H           11.19390177532239       -3.91967519784044       -2.69640222936098
H           11.53196735069604       -5.17837493867667       -1.53868469715679
H           10.91034561157919       -2.85765087977868        0.78780712624028
H           12.46284880067354       -1.31001061616690        1.85202239603214
H           13.62443482280345       -3.45033754482861       -2.45278577703206
H           16.10096687383364       -2.67260334103915       -3.09716101221539
H           18.31608369628958       -1.59688321048734       -3.24413957577080
H           19.06541327309717       -0.04227205871043       -1.50048033641080
H           17.60761248531273        0.47800956221220        0.42261849363989
H           14.24480871303513       -1.66822175343049        3.04055580512105
H           16.02865002873140        2.86309008545152        3.48763750153022
H           18.24805427963357        2.84716373572166        2.32604931402498
H           19.14960083682039        5.14100768424262        2.31772072266786
H           18.00791951922017        6.92622998880916        1.08154192619707
H           15.93444476509671        6.45491967573935       -0.16954037587876
H           13.56579017016101        5.43394798419387       -0.96608740827680
H           10.83987959704253        3.51022909337647       -2.45648304023423
H           11.39368827833630        5.11870569085258       -2.06803181052027
H            9.29339077967864        4.55062947378732       -0.79127050168740
H           10.62782663315463        4.86820907180585        0.28488198507898
H           11.04358073434640        2.39488630692804        0.50757029140345
H            9.68710717479432        2.06929312543258       -0.53100979552632
H            8.13303109264174        2.94952480953696        1.17529229198433
H            9.46588916887768        3.57717367964498        2.12535672643230
H            8.01941887314831        0.18398769870335        0.92928601795578
H            8.95140701786268       -1.75166651928267        2.48084799803960
H           10.01014758569987       -0.44001738861078        5.48770536710507
H           11.63898380918232       -0.55570861315202        4.80382041839443
H           10.48830301276671       -1.87323666768177        4.56359695317226
H           10.66772625435426        1.96955505479817        3.83015424907483
H           11.90645215263563        1.52741080606202       -1.43013749319451
H           13.79770468007603        0.56065443411568       -0.21367319630742
H            5.50939704964923       -1.58092120186307        0.82862435582717
