22
 energy: -3.436371794192 gnorm: 0.000474067919 xtb: 6.5.0 (97a52f5)
C            0.98877785685047        0.08135227202108        0.07337317860482
C            2.47759606276416        0.09026432008651        0.08746340853579
O            3.07939700401680        0.96996708032287        0.64319869872830
C            3.24365584917580       -1.03326373755649       -0.61406144244787
C            2.90661762703670       -1.08740957202114       -2.10152007054448
C            4.76742063319203       -0.80580841423717       -0.45527938928520
O            5.50093451566715       -1.88147585911744       -1.01106919127558
C            5.12649103956276       -3.11797295205448       -0.43229207152342
O            3.74673170047853       -3.42084830282455       -0.53097120467852
C            2.94637653018409       -2.40370866321731        0.04299827757686
H            0.61309656579491        0.92836530187193        0.64621860751368
H            0.59265627189856       -0.82845618515196        0.52283188195153
H            0.60176061817336        0.16688323954937       -0.94124332551746
H            3.11916602924614       -0.13346932872582       -2.58202645387301
H            1.85728087426396       -1.32886945813628       -2.26202432969108
H            3.50733731496593       -1.85611533524864       -2.58689963451816
H            5.03851143933611       -0.70344870112920        0.60105117871603
H            5.07657446178568        0.11509337055212       -0.96216945507418
H            5.41793859958952       -3.12069583358626        0.62272666607076
H            5.68377075117916       -3.91200961168085       -0.94276319085426
H            3.14307181775132       -2.37399483829851        1.11961433760219
H            1.89890643708685       -2.68961879141777       -0.09728647601674
