91
 energy: -18.728437669249 gnorm: 0.000621254901 xtb: 6.5.0 (97a52f5)
C           -2.01301194158595        0.01405887803454        0.15709763975960
C           -0.74860712122444        0.13236777515787       -0.62055064939117
C           -0.07770775938951        1.35050510191204       -0.73191797749611
C           -0.56101720908894        2.56928114141532       -0.03355069205245
C           -0.94649075531093        3.69126497103980       -0.76842040024332
C           -1.36164530769182        4.83667949081781       -0.13645495067904
C           -1.39741575590060        4.90614726723646        1.25591120720016
N           -1.83105479970014        6.11356372828564        1.92377491611374
C           -3.15126267075709        6.19122096650395        2.44655730873555
C           -4.01709824143700        5.11102310336607        2.28536913659452
C           -5.30218510857646        5.14735819623483        2.77100155788028
C           -5.74839193595958        6.27172591283753        3.43042947646629
C           -4.90399928997336        7.35098865817566        3.59544186062920
C           -3.60395475090359        7.33675479688912        3.11204136130817
C           -2.70602874779924        8.56475064328801        3.31609391180717
C           -3.37960631196366        9.78063997769880        2.64825272687997
C           -2.55064526305380        8.80936938111632        4.83034794607333
C           -1.30920152495247        8.38706575741978        2.70545001124734
C           -0.38330848869983        9.41531389205072        2.80335525083194
C            0.88589377327277        9.29755312062033        2.27378324885167
C            1.25541748602347        8.13592272184548        1.63179561097495
C            0.35402622914187        7.10416102506428        1.52382858475154
C           -0.93227040003042        7.20856484589698        2.05031930428277
C           -0.99627916521784        3.79266206837916        1.99335943500898
C           -0.58029174962496        2.64795309619102        1.36102596848512
N            1.02673129843832        1.46819231285119       -1.47098426415190
C            1.44085728861468        0.35983827166827       -2.03604532207002
N            0.92265159350415       -0.84435423956956       -2.00072456462162
C           -0.20879295032382       -0.95843282429034       -1.30259099823209
C           -0.84311101637587       -2.29756462978637       -1.26100785251720
C           -0.07474648371368       -3.41625398040939       -0.94355656388535
C           -0.63314130428141       -4.66982199033599       -0.90999241174045
C           -1.98435342090536       -4.86786948216427       -1.19525342096307
N           -2.55211262820242       -6.18241972395005       -1.19019967516646
C           -3.83837231534946       -6.45998780261501       -1.76606158756395
C           -4.99507533647201       -5.82820425882310       -1.31650303086461
C           -6.21430547530562       -6.11783524410409       -1.88197471719899
C           -6.29687228843425       -7.05227016959261       -2.89375287820866
C           -5.16145566244204       -7.70995643316354       -3.32602927885869
C           -3.92418228886231       -7.44069359490583       -2.76497598611007
C           -2.62692278323416       -8.15224359075384       -3.18863394475285
C           -2.93190450116796       -9.49295772259719       -3.88482901913160
C           -1.86380122943505       -7.24198892021956       -4.16507860392784
C           -1.75885427086367       -8.36487525849438       -1.93573951041011
C           -0.98141695939161       -9.49155181638728       -1.72494887028421
C           -0.22319353830162       -9.62797470632013       -0.57806982919594
C           -0.23463567190549       -8.63817613073252        0.38326040013478
C           -0.99295656817838       -7.50764774989953        0.19139043761520
C           -1.74270634168919       -7.34773730076837       -0.97091124311423
C           -2.73804316696472       -3.75209782222845       -1.56088552973083
C           -2.18434397733332       -2.49585010190763       -1.59129957259205
H           -2.02963543453608        0.69387248436810        1.00766203813715
H           -2.14187143294551       -0.99461055304661        0.55083514529686
H           -2.87475462999006        0.24974749525108       -0.46816137313006
H           -0.90857455160766        3.64325451067860       -1.84300936828402
H           -1.66364663759186        5.69917419330695       -0.70450771758530
H           -3.66577529916128        4.23634086130798        1.76756377738960
H           -5.95674458216188        4.30147727888671        2.63755025111005
H           -6.75473383686519        6.30831131690013        3.81477885840245
H           -5.26406243797315        8.22397684089176        4.11141667693691
H           -4.36877920389889        9.96597754753719        3.06388305653882
H           -3.49099580002697        9.61085447821626        1.57783469368633
H           -2.79081390130521       10.68639318265142        2.78477751670763
H           -3.51621031955734        8.96737784905958        5.30824622778717
H           -1.93573496468109        9.68549871929396        5.03068567783917
H           -2.07689467085332        7.95103001518476        5.30571127969216
H           -0.65898744014944       10.32639022057577        3.30542924757785
H            1.58716659123874       10.11105494607906        2.36432640830764
H            2.24535422862344        8.03575373395892        1.21721793392802
H            0.64047276967734        6.19416096276739        1.02737039595929
H           -1.00965974799239        3.85300880143062        3.06760779085612
H           -0.24123232911617        1.80330747194109        1.93582123850106
H            2.34668714894062        0.45262727194761       -2.61845985454821
H            0.97108763023346       -3.27814140828502       -0.72939003666279
H           -0.01308801506960       -5.51893727656496       -0.68921570409313
H           -4.92532428403812       -5.13100388349309       -0.49961050174381
H           -7.10392061157072       -5.61938436372979       -1.53287840578097
H           -7.25143786569698       -7.27681312596058       -3.34116860210056
H           -5.24737940034075       -8.44178270195758       -4.10895058568399
H           -3.52925758410612       -9.34413882573568       -4.78302844972310
H           -3.47413959689295      -10.16190305315261       -3.21734500732221
H           -2.01626549942190       -9.99038246063213       -4.20090994853482
H           -2.45551058115756       -7.04837382403865       -5.05916470854281
H           -0.92319275825363       -7.70011915347146       -4.46901910408539
H           -1.63626483433480       -6.28452031191450       -3.69758131958562
H           -0.96268374139210      -10.27562851299848       -2.46033432198909
H            0.37406249941183      -10.51301708164902       -0.43052943070191
H            0.34715363897339       -8.75232166036143        1.28337496658507
H           -1.03186079929338       -6.74138352117449        0.94610433757277
H           -3.76279002001831       -3.88276695647917       -1.85420405820230
H           -2.77671488603415       -1.65188311553012       -1.89929297685106
