49
 energy: -10.842502900449 gnorm: 0.000569207185 xtb: 6.5.0 (97a52f5)
C            0.91306136632178       -0.54957207463899       -1.30574682115911
C            2.34205078018906       -0.43201205072660       -0.89912468894310
C            2.94741769593526        0.81323276111469       -0.83485662845406
C            2.17056275427809        2.06073077395144       -1.07982413443575
O            2.45191372514391        2.79089884501018       -2.00902757019929
C            1.06608978447659        2.41734160585877       -0.15892257963441
C            0.15785078068663        3.39558304448737       -0.53475845287274
C           -0.87646677935555        3.75310254776734        0.30210095618857
C           -1.01457026831942        3.13791081554959        1.52981970176231
C           -0.11305107647059        2.16805519466608        1.91952762511601
C            0.92184138684507        1.81070169326689        1.08372665345300
C            4.33266099337182        0.92970521825640       -0.52905593865560
C            4.97809721744961        2.19515500164008       -0.52633470577743
C            6.28783799492516        2.31821251537743       -0.21466909539068
C            7.07073738086507        1.17644122151858        0.11912384722308
C            8.42558596511181        1.28911598099401        0.45229615165433
C            9.15947167318353        0.17508138043205        0.76564959586729
C            8.57421795889516       -1.07998215008621        0.75584564587059
C            7.23391302001139       -1.25283190263349        0.43171879417580
C            6.59176116018982       -2.56643715626396        0.41093456195934
C            7.28038200619145       -3.73724273120196        0.70620958842173
C            6.65329696218552       -4.97111859747252        0.67989630671084
C            5.32448132694747       -5.07026560460247        0.35837022201813
C            4.58130901344085       -3.92561958320117        0.05027811120885
C            3.20005741822890       -4.00380090764621       -0.28783832813812
C            2.48953102596829       -2.89448960106788       -0.58830893689455
C            3.08814349400823       -1.59926628184844       -0.58196231891196
C            4.45350216701502       -1.49184312849766       -0.24273364069859
C            5.21423060366161       -2.66116250481988        0.07506762334221
C            5.08034294714301       -0.21939242045656       -0.22388231842798
C            6.46636675526142       -0.10273767209886        0.10955785595318
H            0.53584501520645        0.38948880158353       -1.71080573517139
H            0.28617376657991       -0.82366423201409       -0.45659699226381
H            0.78840309012274       -1.30258036193833       -2.08422868157418
H            0.28402856546504        3.87163516745300       -1.49224701702891
H           -1.57633409152355        4.51441454703027       -0.00108270961644
H           -1.82357643543788        3.41685960008778        2.18486803485383
H           -0.21782388684378        1.69091180737691        2.88012154860675
H            1.63092309601423        1.05978794335206        1.38608741128945
H            4.40207002704539        3.05945123560800       -0.80800771584423
H            6.75916206676512        3.28568350567875       -0.22271931653004
H            8.88405372039375        2.26293186455532        0.45955724278308
H           10.20169302806998        0.27553611981922        1.02124109386963
H            9.17842290605147       -1.93249409657610        1.00613513505572
H            8.32352457834392       -3.69433904046267        0.96022614631442
H            7.21507816028409       -5.86067726622441        0.91370946973249
H            4.83969176540246       -6.03112817564137        0.33878516825710
H            2.72669150135755       -4.97040575252731       -0.29922321951703
H            1.44540589289347       -2.98606589978642       -0.82927694555736
