49
 energy: -7.804274166059 gnorm: 0.007606086324 xtb: 6.5.0 (97a52f5)
C            0.90300773812411        1.57618060044233       -3.83225408211948
C           -0.21256112728515        2.20196105534639       -3.23854661932366
C           -0.22136841773824        2.89232391903969       -2.12967997298073
C            0.94855730288925        3.28642721660144       -1.39390153705341
O            1.98434457698770        3.56991252278004       -1.96661954445191
C            0.87694686841296        3.32038893908947        0.08995427632748
C           -0.27086489504147        3.02150774739338        0.76253112964249
C           -0.29606385382459        3.01433654021620        2.08299504876603
C            0.79479356748123        3.29291306437332        2.77862695903590
C            1.92472055406066        3.58668184819883        2.15598140380754
C            1.98062787766459        3.60311947519218        0.83640983048553
Cl          -1.62983719367678       -0.28021835439272        5.14261996947794
C            4.34260063162125        1.76399839787704       -1.16166633622252
C            5.50440925858610        2.11052484537870       -0.65294408782621
C            6.56968733500528        1.21125261012342       -0.32633689018329
C            7.75793373616977        1.74228490049387        0.19830773447498
C            8.81749548645884        0.94154025160841        0.53533544348431
C            8.74060852148717       -0.42902596090920        0.36865282548631
C            7.59237365388471       -1.01859091775479       -0.14276589223067
C            7.50967936954994       -2.42569751129665       -0.30121300757470
C            8.49925178302564       -3.30502202175244       -0.55498923328230
C            8.29836633477698       -4.66514449827904       -0.76937634969564
C            7.13287615479687       -5.33434147981879       -0.63576039190856
C            5.99128649517181       -5.06924226924034        0.01224280250084
C            5.79604021784783       -4.42777650930803        1.19971934269150
C            4.64586175963205       -4.20246097341291        1.75395113715862
C            4.33843121140720       -3.64126115913060        2.95231762305501
C            5.10248030017342       -3.14979200336115        3.93038995988141
C            6.40538654034918       -3.05510081722637        3.99230192696019
C            5.37356505847289       -0.77368071170902       -1.00425821465023
C            6.48200987448174       -0.19860941485391       -0.50490398291576
C            5.42996100020033       -0.51657711252181        2.25479841011388
H            1.24472760650769        0.74086852597130       -3.24622263199875
H            1.71906191574862        2.26213078924743       -3.96794404112345
H            4.95954845474370       -3.11373112359966       -1.76983464955698
H            3.70220258947536        4.96033820580125       -1.98065834063305
H            1.21874082793261        4.90187547663825       -3.52772379331153
H           -6.12385985065805        3.55166787229924       -0.49178358495591
H           -3.89414285052491        1.95042772751976        5.95041554984167
H            3.57097933762930        2.43793333544445       -1.39893914854720
H            5.68178142369822        3.15657777140913       -0.46154727318651
H            7.82795410020306        2.80788585640874        0.33860376177416
H            9.71613884789309        1.38226194022458        0.93613969151592
H            9.57499007227377       -1.05038452684931        0.64635440308805
H            9.49305801358920       -2.91008319012751       -0.69172240184823
H            9.13679977149387       -5.23485716510542       -1.13933060280536
H            1.51802719330680      -10.78241791594979       -1.15257052767216
H           -1.19547070548771       -8.79999421739573       -0.83318289941655
H           -0.51785447167036        0.27290841696518        2.17930680899073
