15
 energy: -2.472999939739 gnorm: 0.000593925706 xtb: 6.5.0 (97a52f5)
C            0.98708780346678        0.13020755147151       -0.01060485055284
C            2.46514561149043       -0.00786690458329        0.12644939735712
O            2.91939494572808       -0.79652077306521        0.90924671744345
C            3.31680962519259        0.87314652117917       -0.74801515210834
C            4.81673786408586        0.75975628098018       -0.63546801444574
C            5.50449523947658       -0.17846607713187        0.29576110479035
O            5.48741072576814        1.46825299332103       -1.33868308301184
H            0.48941046127150       -0.55757575361125        0.67205281568310
H            0.66284184363692       -0.10458509225933       -1.02396762241216
H            0.66283501545485        1.14178480332323        0.23175599010616
H            3.05321807312023        1.91706316752917       -0.55681292550533
H            3.05321759785008        0.68973918069664       -1.79332927120988
H            4.80494492133023       -0.76932604364380        0.88221573492518
H            6.13991400353589        0.37967423601582        0.98193598716674
H            6.13991626859183       -0.86044409022199       -0.26749682822594
