62
 energy: -13.265493982613 gnorm: 0.000725645885 xtb: 6.5.0 (97a52f5)
C            2.25912519208791        0.25574379370548        0.78501728753151
C            0.78269210001340        0.44016292681590        0.73497857823838
C           -0.05511720626028       -0.62840409877436        0.98842547436166
C           -1.43835985089788       -0.49619495578018        0.94991800701652
N           -2.28621405047249       -1.62702928270978        1.20207717615800
C           -3.34375408188589       -2.07211245893143        0.38119593511236
C           -3.82911523412466       -1.58133194841414       -0.82963333792252
C           -4.88092332644146       -2.22814227518232       -1.42988841242789
C           -5.45820192749330       -3.35932882244153       -0.84793881723332
C           -4.98637917578274       -3.86116387849597        0.34047892886316
C           -3.91697543746878       -3.21584413090712        0.96100834627571
C           -3.19355284691140       -3.48640733641027        2.17998987066711
C           -3.33327886168070       -4.47430437183171        3.15164090231267
C           -2.48467702607566       -4.47069793858121        4.24371357959062
C           -2.60734263501137       -5.45836322710790        5.23248344736577
N           -2.70726224999072       -6.27870997378806        6.04882158824886
C           -1.49985675177010       -3.47218945311412        4.36012358720961
C           -1.35053376735618       -2.49579663616631        3.40951384030620
C           -2.19954155863295       -2.50138655035332        2.30351963542382
C           -1.98477973620640        0.74694131533228        0.65896620927121
C           -1.16933931080127        1.82409123469220        0.41904675436433
C            0.21946833810815        1.69748982204260        0.45307502402488
C            1.07367778542672        2.88350049605312        0.18782709130510
C            1.79813430213036        3.46263525352018        1.22930406973671
C            2.58493329641209        4.57018896549736        1.00819012143183
C            2.65507064772404        5.11839679521136       -0.24910511446982
S            3.67381624038246        6.57214647368339       -0.51316492502071
O            2.75879508650695        7.68225098241100       -0.97777825763225
O            4.62710754077611        6.66415043551105        0.65633329156881
C            4.60386945736504        6.00982645819643       -1.94045270239977
C            4.32150545053491        6.53605448808563       -3.17880926546289
C            5.02405448313298        6.10471751589588       -4.28600902988579
C            6.00858448176711        5.14780438941812       -4.14364738945835
C            6.29265957568829        4.62598300397377       -2.89750512335657
C            5.58715697726482        5.05992805069008       -1.79292242967700
C            1.94952310456360        4.56387583880964       -1.29139239765008
C            1.16236881698358        3.44036815027039       -1.10008555822562
C            0.40688896592443        2.86040165940238       -2.24305262377066
H            2.53740446577595       -0.76521751469249        0.52223356256685
H            2.64147524751595        0.46193724061642        1.78496213290042
H            2.76312492720988        0.92425079961665        0.08653482999312
H            0.36530520558278       -1.59351845000988        1.20429434966158
H           -3.37291842834363       -0.71727818568515       -1.27799657303421
H           -5.26649045638628       -1.85874926190637       -2.36573444687345
H           -6.28319452130699       -3.84645191750244       -1.34089975611793
H           -5.42187473874526       -4.73435849341770        0.79291935708893
H           -4.09109706706183       -5.22988458984977        3.05527212603644
H           -0.85762812718864       -3.48641587215883        5.22400617993403
H           -0.60618519188888       -1.72659464557127        3.50870108647681
H           -3.05496327703936        0.85474670361507        0.64388400775156
H           -1.59617259427928        2.78937904842397        0.20745890375482
H            1.72570457043719        3.03710948544852        2.21514662203425
H            3.14666014339312        5.02330841324317        1.80889842330524
H            3.55502835172890        7.28896241088088       -3.26528018431013
H            4.80564765109091        6.51716870444648       -5.25722404669616
H            6.55943363650062        4.81096718391204       -5.00632721327368
H            7.06647149909845        3.88456426570964       -2.78547696987325
H            5.80285273106298        4.67212941985956       -0.81101188843727
H            2.00986508373513        5.01308406719313       -2.26718404703149
H            0.92203535631289        3.04153387474992       -3.18685018600511
H           -0.58777804871076        3.30123485459346       -2.31277500723022
H            0.29179677400572        1.78181174831523       -2.13229462440208
