68
 energy: -14.652541165826 gnorm: 0.000842395332 xtb: 6.5.0 (97a52f5)
C            2.45416133630318       -0.05061070848838        0.60531100355649
C            1.00629957255946       -0.04320069164588        0.25733942372804
C            0.28307902430531       -1.22041350854031        0.25345660209682
C           -1.07751166859337       -1.24016257066988       -0.03388924792630
N           -1.80796923534028       -2.47623795892093       -0.02914798929970
C           -2.72624759518200       -2.90578391829655       -1.01159965485856
C           -3.14104826006190       -2.30698907208418       -2.20107313602206
C           -4.06088350901194       -2.95915883215597       -2.98510679556025
C           -4.57495450169800       -4.20361063378213       -2.60966547638650
C           -4.16966714675934       -4.81315232527087       -1.44687071845136
C           -3.23447301696948       -4.16238113033338       -0.64031885004048
C           -2.61057632495226       -4.52544292446086        0.60949921291464
C           -2.73997609552467       -5.64508195467062        1.43307764045940
C           -2.00826729657866       -5.69692804256987        2.59487729338733
C           -1.15416642673021       -4.64996838329422        2.95305919248008
C           -1.01713767332369       -3.54225134148232        2.15282937235797
C           -1.74372368497050       -3.47750429320118        0.96396688534536
C           -1.71817675952232       -0.04101053794303       -0.32107230698316
C           -1.01736648022805        1.13899203160512       -0.32495588729540
C            0.34836758644116        1.16438685871435       -0.03851143965161
C            1.08484530805049        2.45669562211474       -0.05479002562678
C            1.13532423334321        3.24345448874622        1.09692564699193
C            1.80849304034542        4.43947615206363        1.10653161042466
C            2.45910790900271        4.89125669051067       -0.03524046514232
N            3.16069743120542        6.14391921696807       -0.02958488222004
C            3.07956730703728        7.14790700958752       -1.01880611927475
C            2.33453224647697        7.21536361153818       -2.19608169029148
C            2.44302298635386        8.33410235238953       -2.98528001873759
C            3.27809493257465        9.39451298990866       -2.62191715273523
C            4.01069778505812        9.35008341849484       -1.46038298409190
C            3.90998902899214        8.21939943383360       -0.64794273841709
C            4.52342192247104        7.87126162528795        0.61122917773837
C            5.42849375051324        8.54540024234750        1.43281210009650
C            5.84968109151168        7.93522485959403        2.58959611141237
C            5.38903458331468        6.66257727693348        2.93896011074616
C            4.49852751882702        5.98766995853302        2.14041640488035
C            4.05118503741619        6.59654251439342        0.96796857366310
C            2.41191051552713        4.11102773679154       -1.18547054395445
C            1.73888083978326        2.90492651966977       -1.21673669557776
C            1.67242674147751        2.11482400572201       -2.47719048155240
H            2.86182063963575       -1.06231335330634        0.59304759833710
H            2.61241299388615        0.36239194083134        1.60231130778121
H            3.03109129222428        0.54788467026114       -0.10063788803031
H            0.78149752645001       -2.14927491139748        0.46321066757172
H           -2.73210871388524       -1.35636323999451       -2.49261928625384
H           -4.39133314612863       -2.50530294846143       -3.90507067585599
H           -5.29702990143362       -4.69227677950468       -3.24307347951475
H           -4.55665636882715       -5.77260525654702       -1.15192137933571
H           -3.40421637115357       -6.44335149053335        1.15225785773121
H           -2.09634984067329       -6.55458226557838        3.24146679007359
H           -0.59669034552272       -4.71250354576250        3.87329067761065
H           -0.37449577066193       -2.72693620043518        2.43247290502496
H           -2.77510804931170       -0.04928730078873       -0.52180217460020
H           -1.51706196142928        2.06601877241838       -0.54790727675705
H            0.63206336433267        2.89704780462877        1.98315998648986
H            1.82312488716669        5.05097528925977        1.99165855742811
H            1.68120107875059        6.40443804563569       -2.46338878523570
H            1.87403641464319        8.39699903039270       -3.89841791483445
H            3.34483302784297       10.26007179308438       -3.26048115652088
H            4.65201242247516       10.16354494577798       -1.17003884542228
H            5.78154856369169        9.52236457772954        1.15318425297911
H            6.54726291540665        8.44273925607687        3.23550785544735
H            5.74002833273943        6.20363511419836        3.84873853986683
H            4.15359240168756        5.00221118426291        2.39694382424545
H            2.92462454666174        4.45429028982923       -2.06547150289184
H            2.43850992418549        2.43166405175671       -3.18611681270520
H            0.70015632064254        2.23600509041578       -2.95646165023170
H            1.82005776315949        1.05173964781782       -2.28375305457985
