15
 energy: -2.726236489460 gnorm: 0.000426357643 xtb: 6.5.0 (97a52f5)
C            0.96961719383616       -0.05822207461211        0.09598156940872
C            2.45349231964525       -0.03673600023913       -0.00078642211360
C            3.15466711792583        1.16720855212805       -0.05771431126195
C            4.52894166784111        1.17897457428538       -0.15392337907806
Br           5.44879265423561        2.82622117282834       -0.22829338353396
C            5.23011838017066       -0.00526209457545       -0.19629674115411
C            4.54789343792508       -1.21025072741120       -0.14245884364277
C            3.17265381099023       -1.22271891096634       -0.04637740868969
Br           2.27571811411453       -2.88235599015581        0.02170138310992
H            0.56061836963751        0.94873031023691        0.18642053081221
H            0.64773680752194       -0.63013337251501        0.96684361630987
H            0.53194663227576       -0.52030779789660       -0.78946877075345
H            2.62222922157653        2.10249057159841       -0.02715209542566
H            6.30491907304008        0.01830468435805       -0.27196740392520
H            5.08177519926370       -2.14602289706348       -0.17562834006229
