59
 energy: -12.727660259466 gnorm: 0.000506479820 xtb: 6.5.0 (97a52f5)
C            2.17589955276767        0.73127811654721        1.60199403886126
C            2.88049230993156        0.58749171233542        0.30218265543501
C            3.38525547985758        1.69238700358235       -0.35486587453470
C            4.02743213678192        1.57766010681130       -1.58394369708578
C            4.53411289605305        2.71245274967502       -2.23305406657747
N            4.95150324683939        3.65355235721826       -2.77237780833258
C            4.15488726532616        0.31794655998524       -2.15866120943858
C            3.65183529699513       -0.79102175265515       -1.52494358610107
C            3.00714470780252       -0.67593643877026       -0.29508549262736
N            2.46926369939940       -1.84670936915655        0.35889679377969
C            1.16798684143346       -2.31375463258986        0.02156916284303
C            0.49389811793986       -1.78032961267976       -1.07381989752446
C           -0.75614365828252       -2.23194395816915       -1.42513728442207
C           -1.35862520469936       -3.22482342123729       -0.68235000049640
C           -0.70678789595149       -3.75347885305005        0.41273061326525
C            0.55402826096440       -3.31497774287749        0.78192064452234
C            1.21354557515164       -3.84440964302842        2.06304807784491
C            0.66241866438385       -3.07709469907889        3.27798432442268
C           -0.09113365621096       -1.92233758183437        3.12060261105595
C           -0.55594028329830       -1.21940543506663        4.21214170670602
C           -0.26791860923302       -1.65662383998048        5.48697742285440
C            0.49049869150736       -2.79367106334138        5.66403081601708
C            0.95449984012682       -3.49217859327336        4.56884647505603
C            0.90995392259698       -5.34830410994428        2.15290683411901
C            1.60184625135887       -6.23633402343335        1.34325558221319
C            1.30869225135652       -7.58384866649255        1.35409626293668
C            0.30355622301696       -8.06363886900837        2.16639595451780
C           -0.41044488062522       -7.19156687743819        2.96029984630784
C           -0.11267889315357       -5.84485819560267        2.94814536405513
C            2.73205543857474       -3.61879801731256        2.03327567238738
C            3.57240480245700       -4.36658597595007        2.84191329193531
C            4.92928263800369       -4.12012951256255        2.88992237117766
C            5.47033743366391       -3.10707497154664        2.12757476132137
C            4.65511045622785       -2.35697522378175        1.31377580668445
C            3.28626285344210       -2.60327861340438        1.24568244252822
H            2.66194070722227        1.47686284302245        2.23231396911001
H            2.16835820620605       -0.21243123451840        2.14847083422838
H            1.14077150562497        1.03857836284299        1.44917302764758
H            3.28093411629116        2.66673396747760        0.08853942783658
H            4.65124783288298        0.22595616041296       -3.10970357751206
H            3.74526207873761       -1.76647855648936       -1.96938609368896
H            0.96880911966068       -1.00707479898848       -1.65080852632691
H           -1.26264450974206       -1.81232401344529       -2.27886356619517
H           -2.33889400388378       -3.58239387363000       -0.95167273835485
H           -1.18837315442475       -4.51333835144861        1.00235203818070
H           -0.31055365123264       -1.56847149271395        2.12910919176332
H           -1.14302571782697       -0.32717409485439        4.06784973192579
H           -0.63188192664019       -1.11039810064475        6.34187638353815
H            0.72164748931233       -3.13706866284402        6.65915389471914
H            1.54336659183974       -4.38034464838191        4.71467341027554
H            2.37292919529057       -5.85712607745460        0.69471614078506
H            1.86262647262449       -8.26016826985439        0.72385270877584
H            0.07180918459594       -9.11617432913017        2.17466888058066
H           -1.20581322448071       -7.56128941307116        3.58656456666893
H           -0.68825161995997       -5.16542313736743        3.55203478771775
H            3.15604167870167       -5.15991864835591        3.43754571814558
H            5.56394926046291       -4.71514386863610        3.52593019538770
H            6.52845517923156       -2.90624343891034        2.16676931590066
H            5.07274741697289       -1.57147523589519        0.70949966318627
