102
 energy: -19.829574123264 gnorm: 0.000731548185 xtb: 6.5.0 (97a52f5)
C            2.04123675890416        2.03153638909690       -0.01127310829041
C            0.95164641375876        1.01625858077556       -0.02670369450374
C           -0.31504138922086        1.33226988319403        0.43878635785504
C           -1.33298942194028        0.39577836352487        0.46442761287736
C           -2.68847474875319        0.77523821565821        0.95242777475288
C           -1.08162684707575       -0.90531284792669       -0.00345847735322
C           -2.16612093051800       -1.92301832880803       -0.00580186206367
C           -2.25192930303043       -2.84414297935800        1.02985028087527
C           -3.24514088950716       -3.81307701491678        1.08428108447090
C           -3.28057918020353       -4.77487490437983        2.21817429840771
C           -3.87353544808784       -4.40723339254461        3.43777507037540
C           -4.44890419618368       -3.04444091797042        3.61439165732890
C           -3.90295100949229       -5.31871339518593        4.47824575036448
C           -3.37030613939340       -6.59149844920664        4.34415218517445
C           -3.44257831672159       -7.57120961721412        5.46362544026965
C           -2.80260840103168       -6.94906175050548        3.13147361244781
C           -2.73691750160827       -6.06253154184950        2.07151455008381
C           -2.13071052732333       -6.48606798085747        0.77821317357833
C           -4.21556985657392       -3.86807950890125        0.05364419453027
C           -5.26564670501036       -4.82620097866878        0.06372976017055
C           -6.18880452488653       -4.86993429745621       -0.92653430331471
C           -6.14723484095671       -3.95932826791262       -2.01747433801774
C           -7.10815541136390       -3.99610674933446       -3.05785157532822
C           -8.21432029322714       -4.98996305317013       -3.03659134000913
C           -9.35416265140121       -4.76306822787625       -2.24621399931399
C           -9.47138839060952       -3.52578691634571       -1.42440441284772
C          -10.35454863654133       -5.71795779865532       -2.21191599041820
C          -10.26687836205229       -6.88885132239001       -2.94855891885391
C          -11.36926099530000       -7.88992647262380       -2.92184416245248
C           -9.14827397568811       -7.09258423203222       -3.74116231896851
C           -8.11667146587777       -6.17194214076458       -3.78999029980083
C           -6.92349140461280       -6.42345497849663       -4.64570768359618
C           -7.00898949764450       -3.09030798265137       -4.10583487904549
C           -6.00047611213057       -2.13790314249060       -4.17357024248703
C           -5.94880345558978       -1.19210338216025       -5.32019466727607
C           -5.06615378038399       -1.42212848920520       -6.38951326751424
C           -4.17346222051637       -2.61498118808621       -6.39088019772669
C           -5.01138588428741       -0.51125860141082       -7.42935834858024
C           -5.81537555843351        0.61770298538196       -7.44962246321825
C           -5.76408845823302        1.56903108767600       -8.59445558861569
C           -6.69756905579902        0.82344922115592       -6.40064551968241
C           -6.77106466282921       -0.05276804786120       -5.33251147699914
C           -7.72695076613225        0.19889416250358       -4.21796487760591
C           -5.03540790124756       -2.07650766856210       -3.13800972253176
C           -3.98888040997802       -1.11428349381998       -3.14458622117738
C           -3.07217269102648       -1.06320861295809       -2.14857733747016
C           -3.11847784676987       -1.96863380801855       -1.05365250101624
C           -4.14492965216436       -2.94323025125659       -1.01625718445189
C           -5.11301540306015       -2.99341173447855       -2.06188353507535
C            0.19912466159795       -1.23699725551576       -0.47642681930537
C            0.48926125032609       -2.61575426150012       -0.96038939049811
C            1.19353423009056       -0.27509811354146       -0.46860640852544
H            1.64539356777411        3.03599302288687       -0.16917460481619
H            2.77259871363806        1.83722084289532       -0.79732139359257
H            2.56540221640409        2.02279324219316        0.94558377724268
H           -0.50976607286723        2.32986871809187        0.79126596119227
H           -2.64536337018575        1.64878904508529        1.60455535975479
H           -3.14340650048458       -0.03809762009311        1.51980837813371
H           -3.34910841714814        1.01099239859240        0.11679443320460
H           -1.52260113955266       -2.80553879990092        1.81892451548048
H           -5.03226278921789       -2.75123714072159        2.74015804578912
H           -3.65867754167520       -2.30530154322922        3.75396737876271
H           -5.10864414416610       -2.99969117084479        4.48209120143238
H           -4.35477379700142       -5.03560760201973        5.41258333838044
H           -3.53357079160504       -7.06578493639149        6.42637053887969
H           -2.54620244805908       -8.19246959989002        5.49984743046635
H           -4.30459755807628       -8.22986150306399        5.34683665331136
H           -2.40306850482185       -7.94086434945249        3.01266442737810
H           -1.42147382575172       -7.30254243686244        0.92153461668510
H           -1.59363241117760       -5.66160093972021        0.30692454318333
H           -2.89970457428122       -6.82571138067246        0.08285923255207
H           -5.31704463330292       -5.52369401476565        0.88138048025967
H           -6.97377822895486       -5.60531266099478       -0.89997918460810
H           -9.06210941491181       -2.66358152404086       -1.95373633424662
H           -8.92703612054008       -3.63152682138979       -0.48454037629830
H          -10.51314298075453       -3.30382481859477       -1.18729751520456
H          -11.22261503414058       -5.54707591611601       -1.59984280494103
H          -11.92796107932131       -7.83712462738960       -1.98605727584946
H          -10.98062629930140       -8.90506944498392       -3.01764057527207
H          -12.06870004635111       -7.71800367121631       -3.74138202989061
H           -9.07902561229279       -7.99165426765018       -4.32781437217671
H           -6.84642694269111       -7.47617997697191       -4.92143435011296
H           -6.00426605650658       -6.15039408314685       -4.12506008209395
H           -6.97503012164322       -5.83766018077638       -5.56465813420033
H           -7.74089706046722       -3.12646867259116       -4.89262392684544
H           -4.68639709727088       -3.48822862151851       -5.98550963902945
H           -3.28553406516475       -2.43574986077126       -5.78329685617505
H           -3.84528884399971       -2.86432093406701       -7.40088853284964
H           -4.32975926599330       -0.68412005490928       -8.24352434055926
H           -4.78522226183371        1.55445780848887       -9.07635207033034
H           -5.95464545258981        2.59155544421438       -8.26461073084429
H           -6.51267335868815        1.31217301577589       -9.34549743913302
H           -7.33706226165199        1.68840596677614       -6.41636223444358
H           -8.05825839168033        1.23823401180779       -4.20493243074719
H           -7.26582457585596       -0.01274415206961       -3.25197242538183
H           -8.60990347559983       -0.43468342668066       -4.31425029691772
H           -3.93554982183412       -0.41826954025704       -3.96334197522032
H           -2.28618397494139       -0.32891115774693       -2.17588245991125
H           -0.32195878436350       -2.98749077599669       -1.58830805516596
H            0.60723184179827       -3.30386670198218       -0.12204699341790
H            1.40533167025489       -2.64570297308259       -1.55205484600992
H            2.17814894460136       -0.53360040438370       -0.81649169540903
