71
 energy: -13.362408948109 gnorm: 0.000607703721 xtb: 6.5.0 (97a52f5)
C            2.21997079170043        1.80323231608158        0.01882299595267
C            1.06365239748289        0.86470129682050        0.00608731746184
C           -0.05568249893427        1.10635687081229        0.78758358256751
C           -1.12575755399872        0.22846939711165        0.81174589379177
C           -2.31170939678283        0.53468467424881        1.65775677589691
C           -1.07163222168764       -0.91538811881735        0.01643181918872
B           -2.26156627617386       -1.94496629504331       -0.00690926872467
C           -3.73114652977279       -1.40806270113577       -0.16533545589237
C           -4.05207375671007       -0.48050249486262       -1.15509872296628
C           -3.02143213665717        0.04706283008310       -2.09071174346564
C           -5.35813048085353       -0.03146868310762       -1.24693013296206
C           -6.34747336305023       -0.50041698242972       -0.39559987523678
C           -7.75062051262147       -0.01236672117329       -0.50264877110052
C           -6.00493466177049       -1.43465645826303        0.56918824569513
C           -4.70597966875474       -1.89470248508338        0.70172583769928
C           -4.37628848927403       -2.91856728952850        1.72974280683395
N           -2.00397672011438       -3.38161599109247        0.11036831441618
C           -2.53349683865868       -4.28741787740211       -0.84797700261294
C           -3.31103173329915       -3.80373721476543       -1.89629538988798
C           -3.82363852897291       -4.63864297855242       -2.86022050071666
C           -3.56279613042438       -5.98876515839572       -2.79805165327807
C           -2.78752747030217       -6.48644079738906       -1.77154268644087
C           -2.26148883331587       -5.65881944553205       -0.78951280834370
C           -1.39298676597430       -6.26828116837371        0.31583009906077
C           -2.23353965355621       -7.31385906965265        1.07688708360080
C           -0.16860837230287       -6.94165336995213       -0.33603487835423
C           -0.89583720325847       -5.22002642800287        1.31646583287580
C           -0.12118180497937       -5.62520520774128        2.39429665235970
C            0.33389964147881       -4.72644132426144        3.33650125978251
C            0.01616410229511       -3.39272595450524        3.21357277920272
C           -0.74562188998914       -2.97232601049205        2.14960246019995
C           -1.20751657136455       -3.86238037216845        1.18423292006179
C            0.04399403117768       -1.18385468014442       -0.77302881536998
C            0.12645806118816       -2.42212528585169       -1.59325044227065
C            1.10242656879015       -0.29184534659777       -0.75721556069105
H            1.90303104653168        2.81718696181536        0.26785978784310
H            2.70705307163119        1.83944448533501       -0.95690153202481
H            2.96284830498948        1.49240763833142        0.75503177307993
H           -0.09162718623922        1.99549477673616        1.39223528077279
H           -2.03575532603146        1.14921804336501        2.51588567099611
H           -2.77073245465392       -0.37619196058496        2.04145682354126
H           -3.06681253653012        1.07607940698040        1.08636529811258
H           -2.26080989078877       -0.70387778500020       -2.30367951075262
H           -2.52312107356346        0.92057831071829       -1.66803716353176
H           -3.46583988461827        0.34104741528411       -3.04289925580089
H           -5.61147752054086        0.69552740951888       -1.99825537161893
H           -7.87793742872505        0.65124361600539       -1.35926202622120
H           -8.03865431722076        0.53991490734217        0.39322446433330
H           -8.44432212316191       -0.84612814560022       -0.62205167837101
H           -6.76778481083483       -1.80915210350717        1.22885827381534
H           -5.16152736420485       -2.99571929007478        2.48310045500336
H           -3.44748690566808       -2.67204060693706        2.24386315268292
H           -4.25330267384933       -3.90036715979117        1.27064058464542
H           -3.51568607627802       -2.75228353010590       -1.95152019511286
H           -4.42673472689025       -4.23883831184901       -3.65938428584196
H           -3.96008863845822       -6.65264710409292       -3.54874665411758
H           -2.58356678123435       -7.54252246676244       -1.73500341834317
H           -2.60004672151538       -8.09250120082623        0.40948606325252
H           -3.09595229582619       -6.83892467458128        1.54410477302140
H           -1.65252094112283       -7.79957825986533        1.85949116309910
H           -0.46837789527341       -7.71777290552525       -1.03885044307819
H            0.47496402476894       -7.40444608847779        0.41087479536639
H            0.42350752813066       -6.20608104780915       -0.88001147992464
H            0.12933154200592       -6.66641237029824        2.50090885222290
H            0.93261993863767       -5.06664472877170        4.16589692101141
H            0.36438413934836       -2.68222668368782        3.94579283618281
H           -0.98834824450405       -1.93140337837040        2.05648171586442
H           -0.83234407401607       -2.64684036839220       -2.06013690298878
H            0.40537886234229       -3.27674432033291       -0.97564130212088
H            0.86613764666707       -2.32552489060671       -2.38913174187365
H            1.97527225615384       -0.49961906445342       -1.35071469144590
