19
 energy: -2.899589190817 gnorm: 0.000554947415 xtb: 6.5.0 (97a52f5)
C            0.93494875882708        0.08418561800586       -0.03282353440300
C            2.41970884917923        0.11549913950068        0.08970752330178
O            2.97971637762257       -0.48418993956986        0.96925848636413
C            3.18712251870610        0.93171462699928       -0.91158513736210
C            4.70920327961431        0.74604487982359       -0.79217116091994
C            5.10926268884636       -0.70172500557191       -1.07170611861625
C            5.45973866939148        1.71341029513138       -1.70752749956796
H            0.51940255660618       -0.63181478346284        0.67531026348513
H            0.62825088410152       -0.21340445604675       -1.03552341935190
H            0.50549212237769        1.06197335117956        0.18468668122109
H            2.92896712890443        1.98769712213554       -0.78316756572251
H            2.86890572394140        0.66175827135043       -1.92281539542928
H            4.97754955021012        0.97574583826611        0.25462923825366
H            4.84547149403752       -0.98522238589773       -2.09055807900684
H            4.59536953027398       -1.38578895005691       -0.39478764701309
H            6.18284012206514       -0.85196748485529       -0.95214719008596
H            5.21260053375948        1.52471646790956       -2.75224373543684
H            6.53992573859106        1.60652023618885       -1.60050382913430
H            5.20280347294434        2.75094715897035       -1.49051188057562
