85
 energy: -16.838927111731 gnorm: 0.000742881651 xtb: 6.5.0 (97a52f5)
C            2.45495144062270        1.35929769332953        0.05652964190660
C            1.21669770445583        0.53404012338595        0.00277866054441
C            0.10387739301869        0.87459641737154        0.75636660026425
C           -1.04271790464105        0.09922974739398        0.74554257217377
C           -2.21585645328107        0.49939405510773        1.57004986102211
C           -1.07403348934992       -1.03825532315819       -0.05950165419125
B           -2.35176248531453       -1.95361037632840       -0.10699143143349
C           -3.76013229719495       -1.28529853231557       -0.31738553098230
C           -3.96225978388580       -0.31748833562252       -1.30028325343601
C           -2.85587979759579        0.13504959965765       -2.18783222897449
C           -5.21884687457649        0.24932257619058       -1.42692161181233
C           -6.27680937079704       -0.14425602289717       -0.62167858406358
C           -7.62067027294462        0.48192080591065       -0.76133247958083
C           -6.05165884153467       -1.11552782005554        0.34109105958462
C           -4.80406833480966       -1.69040033074073        0.51044172807598
C           -4.60668192926232       -2.75206998014739        1.53351122105622
N           -2.23178917939199       -3.40510102745855        0.03714550653398
C           -1.47661959882857       -3.96392999146392        1.10318692063544
C           -0.86806879836615       -3.12805203272557        2.03474843396667
C           -0.13774581526321       -3.62929143165233        3.08601826848054
C           -0.00380478430807       -4.99122119078524        3.23367605673163
C           -0.61200870608693       -5.83556124224143        2.32954869797568
C           -1.35336102161672       -5.34784166285862        1.26442092489551
C           -2.07051269234073       -6.34132287499329        0.34311629013111
C           -1.00520715595338       -7.32623737583356       -0.16861757261431
C           -0.21511727597189       -6.97656026742667       -1.25410519000582
C            0.79349548147902       -7.80603460340035       -1.69829032295221
C            1.04037826083308       -8.99821844829058       -1.05107401301097
C            0.28090528733405       -9.35156668671914        0.04424072790168
C           -0.72716540725036       -8.51874979756535        0.48467951844935
C           -3.19529540911816       -7.03615155809492        1.13134327308043
C           -3.69397295859246       -8.27470745670930        0.75308941210976
C           -4.74873251000575       -8.85353163010186        1.42898315343672
C           -5.33580817084044       -8.19490483706572        2.48852677904035
C           -4.86707579087816       -6.95497519658195        2.86643557074178
C           -3.81131953367704       -6.38195769490683        2.18874889720931
C           -2.73000794215835       -5.64494289437401       -0.85260320326079
C           -3.26346191618472       -6.41637163845634       -1.87352230303871
C           -3.87294100294966       -5.84394547212474       -2.96960156337736
C           -3.95919896797925       -4.47303503475611       -3.05968599028703
C           -3.43402845643059       -3.69237619915452       -2.05752704308751
C           -2.81441599675334       -4.25187334377321       -0.94396074011850
C            0.03309015625039       -1.40626405458529       -0.82001457485020
C            0.02535181256913       -2.64741401832805       -1.64023062124655
C            1.16898075433400       -0.61706523420244       -0.76810760119024
H            2.22480250616280        2.40194734033940        0.28083767036732
H            2.98513502100415        1.33537319199774       -0.89679724646338
H            3.13265948175990        0.99042899814344        0.82789108339414
H            0.13524702198349        1.75857366839364        1.36858177576590
H           -1.90885009858045        1.09355916659361        2.43186641724778
H           -2.74912730932942       -0.37321571375232        1.94734321696074
H           -2.91739223943963        1.09521140959053        0.98468473395953
H           -2.16787054290431       -0.68060812274305       -2.40922741577896
H           -2.28588977382268        0.93813554111044       -1.71901092717034
H           -3.23949392783280        0.50667256238469       -3.13906182892072
H           -5.37914258770112        1.01111037394195       -2.16936404186144
H           -7.73086554896481        0.97308550707486       -1.72933655260411
H           -7.78186091341854        1.23053331447441        0.01586913513993
H           -8.41102056122866       -0.26574797665121       -0.67793268960193
H           -6.86575187900414       -1.42771753281636        0.97120372849663
H           -5.34450257715268       -2.67760843983827        2.33350728969866
H           -3.61817926949218       -2.67984138859208        1.98671302892526
H           -4.69709326329255       -3.74066287942498        1.08160257119050
H           -0.97170489269257       -2.06579605603253        1.92826168536397
H            0.32862512464050       -2.95937403168255        3.79016913091142
H            0.56591027227560       -5.39502574032974        4.05482301571711
H           -0.52279809414665       -6.89964653487192        2.45732816513387
H           -0.39573952615823       -6.03768690628991       -1.74870869465151
H            1.39111245803094       -7.51948071143314       -2.54842294868137
H            1.82865142126139       -9.64790517274546       -1.39549364904787
H            0.47779707500688      -10.27742382143915        0.56011153273589
H           -1.30225706709605       -8.79295526818144        1.35206829748615
H           -3.24688107917640       -8.79397021312014       -0.07654740424547
H           -5.11577050434500       -9.82073728118449        1.12595201846456
H           -6.16061382585390       -8.64580160206404        3.01633120596423
H           -5.32730813650271       -6.43121518998656        3.68856230195448
H           -3.45443020053517       -5.41013850350873        2.48121457145329
H           -3.18436900995329       -7.48730855948478       -1.81304892349917
H           -4.27748462695747       -6.46589102509786       -3.75157647781738
H           -4.43466177314753       -4.01445579558369       -3.91154474604337
H           -3.50124952376017       -2.62442954847116       -2.13401467529012
H           -0.93513473263795       -2.78210905151999       -2.13677475575704
H            0.20577218674367       -3.52312516023201       -1.01557645384920
H            0.79494789163541       -2.61962204934062       -2.41276483348027
H            2.03535165989860       -0.90284019804124       -1.33814057404716
