75
 energy: -14.659043038654 gnorm: 0.000503953916 xtb: 6.5.0 (97a52f5)
C            1.99354034128483        2.19915167741911        1.07286977463127
C            0.96768434783648        1.16351419357719        0.76880342820354
C           -0.28716791917976        1.21505578023485        1.35275521724731
C           -1.24623856084066        0.24863727184477        1.10470236040747
C           -2.57754162961746        0.37330545578571        1.75856716286028
C           -0.94264749141369       -0.80768804402729        0.23746929706486
B           -2.04425389756280       -1.88770237296342       -0.08561855560946
C           -3.49663366239474       -1.39710053054132       -0.40611589328086
C           -3.70408429572643       -0.49296289425751       -1.44942465082002
C           -2.56133948443909        0.07902000551305       -2.20981657387252
C           -4.99685491935792       -0.10584307144242       -1.75110542327413
C           -6.08445558263034       -0.60226553549887       -1.04771058879067
C           -7.47329723793089       -0.19516873694621       -1.39595550514102
C           -5.85185780897139       -1.47073451485263        0.00780373341542
C           -4.57249437831592       -1.86832470227810        0.35032490227250
C           -4.37266139080422       -2.79756248886890        1.49634068063377
C           -1.78336824613567       -3.41776252948860        0.01482363032316
C           -1.00806204147942       -3.92524628653783        1.07040270799105
C           -0.36463558228131       -3.02915377608845        2.07004262853702
C           -0.84381498666255       -5.28959832316685        1.18990311303082
C           -1.45658065397999       -6.16780439640307        0.30734235153516
C           -2.23225103733128       -5.68381565570368       -0.71054041441010
C           -2.40499075474910       -4.30913338879891       -0.89332861665787
N           -3.24826015837502       -3.86599155612151       -1.96776414900800
C           -2.86972640883161       -3.15132284111156       -3.13432921502245
C           -1.61307552069974       -2.84056966121878       -3.64184258374784
C           -1.52742505219209       -2.11861989415048       -4.81125247873081
C           -2.67529578294861       -1.71568246299365       -5.49060147090947
C           -3.92823799373235       -2.05177225267615       -5.02281703565960
C           -4.02502608898021       -2.78434292679833       -3.84515153034089
C           -5.16072993863350       -3.34860249174049       -3.14100529846967
C           -6.52786045709061       -3.31156300112491       -3.39002347053605
C           -7.37412059181518       -3.98088012184787       -2.53131543153692
C           -6.87249432130383       -4.69097594826296       -1.44245508662608
C           -5.52039200372441       -4.73450379360516       -1.18658825523060
C           -4.65559060707466       -4.04754376526382       -2.03262480267730
C            0.32690569951327       -0.88419471086970       -0.34639048567886
C            0.70973369261273       -1.97323311252142       -1.28240646683776
C            1.25721782596497        0.10188008803806       -0.07224252173406
H            1.53041248447876        3.16974155562461        1.25702450700195
H            2.69188672910159        2.31808885667019        0.24305159234712
H            2.56788504074650        1.92648463761379        1.95951112760798
H           -0.51976566781356        2.02921457700062        2.01640197330373
H           -2.55321394053779        1.09772512869158        2.57391869367067
H           -2.89941320399634       -0.57774940389411        2.17997292855513
H           -3.33291673142039        0.70556843639661        1.04557246325554
H           -1.72661454211775       -0.62041074700032       -2.24255247724775
H           -2.20871614478527        1.00125498269089       -1.74613922019661
H           -2.84473289313007        0.30338098596442       -3.23899023739894
H           -5.16302904614021        0.58733860041685       -2.55662399922346
H           -7.52074486593809        0.23462664849561       -2.39761678640521
H           -7.84787480958853        0.54916392490204       -0.69177477394509
H           -8.14774408701458       -1.05258459987133       -1.37222219978223
H           -6.68817937710749       -1.84969940360224        0.56831194693856
H           -5.07765113026977       -2.58531985981838        2.30137518208293
H           -3.36728411757948       -2.71372844307904        1.90704791566048
H           -4.51574605960600       -3.83292991902522        1.18972405361122
H           -1.01518913609338       -2.19378172238126        2.32751092775417
H            0.57231016660380       -2.62500473785709        1.68522110876560
H           -0.14108886785004       -3.56333732107094        2.99459323835932
H           -0.23976243518637       -5.67632489779790        1.99310353885118
H           -1.32504535921667       -7.23072555632188        0.42810555664713
H           -2.71530463761096       -6.35667441887566       -1.39770335690687
H           -0.73498244130567       -3.20594905390484       -3.14368516451227
H           -0.55843130351963       -1.86669462458961       -5.21029461831417
H           -2.58236767175986       -1.14762928991611       -6.40174707772085
H           -4.81994246710288       -1.76742374281019       -5.55327935364238
H           -6.90514767097109       -2.76554088720624       -4.23669381661455
H           -8.43710449175358       -3.95903251599891       -2.70768093696526
H           -7.55330801527080       -5.21364276499312       -0.79060975759132
H           -5.12433397248826       -5.29466993275889       -0.35887566227714
H            0.03562673865798       -2.82280291464778       -1.20481103067851
H            1.71535088773106       -2.33690782079146       -1.06555776405171
H            0.69916890199091       -1.61624414758699       -2.31307035934882
H            2.23101871825838        0.04429170703308       -0.52612264527935
