84
 energy: -16.385334914719 gnorm: 0.000895315832 xtb: 6.5.0 (97a52f5)
C            2.17861156052214        1.82368176774075        0.51112750528237
C            1.04214829758415        0.87208783504660        0.36904957169093
C           -0.12020306512460        1.04016047348361        1.10663476954973
C           -1.17316668517190        0.14814540847372        1.01171002497834
C           -2.40592705517413        0.36562978574294        1.81604005441622
C           -1.05993492572535       -0.93868652140267        0.14157941138031
B           -2.24274387606537       -1.95551592801174        0.02274761067734
C           -3.70009446875217       -1.45438787767556       -0.24338531369029
C           -3.96598777326287       -0.56874765908503       -1.28873475162530
C           -2.87703403625212       -0.08982398207509       -2.18190504588871
C           -5.26348368156518       -0.12574628302420       -1.47321954399841
C           -6.30108133423965       -0.55984850220655       -0.66019776558549
C           -7.69459922177042       -0.07623117502662       -0.86543952974044
C           -6.01448992326832       -1.45142765675353        0.36269253234102
C           -4.72735207728166       -1.90258874194409        0.59034505229073
C           -4.46510788733812       -2.87398006488842        1.68770807745534
C           -1.98540277399476       -3.48439151488984        0.06227959309506
C           -2.60200784542530       -4.22108395848621       -0.90657554914285
C           -2.49624214697409       -5.62647517691905       -0.93281670913018
C           -3.11775956160899       -6.36914261677970       -1.95239925223213
C           -3.09298558494063       -7.75805822125940       -1.97815557058170
N           -3.48805664306367       -8.44295303600952       -3.12113494100365
C           -4.23736816659704       -7.78153884380967       -4.18944073649940
C           -2.89982784521637       -9.72365911714817       -3.53330800368268
C           -2.64837592394091       -8.44594890955552       -0.77391860960695
C           -2.97729931547891       -9.78806608869075       -0.54064778762294
C           -2.67540525568582      -10.40437552399762        0.64559900142861
C           -2.06976205438361       -9.68464196795612        1.66498374761959
C           -1.76200416916514       -8.36470167520974        1.47996457674978
C           -2.00057919767126       -7.71565764020551        0.25409315671516
C           -1.74662509674761       -6.29371397445703        0.07785534875689
C           -0.89152441087751       -5.50317915674997        0.92969691276185
C           -1.11772813765785       -4.10760869242866        1.00425479793618
C           -0.46988848163888       -3.34212574963290        2.00553020074777
C            0.44694670000672       -3.89408694140966        2.83447557940844
C            0.85931276725774       -5.24377858880383        2.66428498423624
C            1.92740005777991       -5.77619590916867        3.41252613195261
C            2.41671243637172       -7.02271873442386        3.14331824947206
C            1.87490065611518       -7.77389959327634        2.10313432655893
C            0.82293865183599       -7.28838624409132        1.37725821372911
C            0.24073373888515       -6.04029650351782        1.67116926542648
C            0.10223812614703       -1.12833614227234       -0.61085386982825
C            0.25844145184785       -2.29462865524231       -1.52257731040866
C            1.14010178212663       -0.22461260781616       -0.47396472017934
H            1.82712593244628        2.81979369413807        0.78430052777190
H            2.73493338593496        1.91414271812256       -0.42311570390154
H            2.87112013589687        1.48719090129098        1.28408707004773
H           -0.20195292434419        1.88228296598167        1.77092566891109
H           -2.22878696434830        1.06438948685776        2.63476390131619
H           -2.75712460616676       -0.56898633006355        2.25271931808527
H           -3.20675955981412        0.77235499785567        1.19715559278779
H           -2.21110330278461       -0.90861854373623       -2.45538393121875
H           -2.28192905958283        0.68192543686137       -1.69055957631336
H           -3.27708999584475        0.33200484162193       -3.10568433036484
H           -5.47403719579206        0.56830734889298       -2.26757557561251
H           -7.77765101742821        0.52905918639845       -1.76929180413874
H           -8.02085515854814        0.53516474812630       -0.02268465939850
H           -8.38692907707206       -0.91403581510767       -0.96161201257305
H           -6.81354326147082       -1.79679130333065        0.99485437924782
H           -5.15088662838031       -2.72157907636948        2.52230924629995
H           -3.45020854083377       -2.77337527923597        2.07245706190586
H           -4.58706158603814       -3.89857697165649        1.33382084670645
H           -3.21015496541378       -3.72209576862441       -1.63917101673107
H           -3.55885843987556       -5.83315342225956       -2.77185946087775
H           -5.05227125540891       -7.19427469177954       -3.76955727980173
H           -4.66788290424236       -8.51872285378681       -4.86539241871511
H           -3.58118246957744       -7.12692967246652       -4.76071725221461
H           -2.04502488842929       -9.97458037750551       -2.90793649878527
H           -2.54810439426705       -9.65921284602976       -4.56172491800268
H           -3.64010170447243      -10.51947896828013       -3.47226248223202
H           -3.53822627478462      -10.32687019805173       -1.28222110192780
H           -2.93962118368051      -11.43771539448901        0.80172703752263
H           -1.86465091556734      -10.16017632970461        2.61046395693139
H           -1.35970218064881       -7.79612094782870        2.29979624885482
H           -0.71578513753873       -2.29940715429039        2.09711772389775
H            0.92686946304654       -3.29573978715498        3.58978298130826
H            2.37148399206961       -5.17516897593058        4.18773367727449
H            3.23942942591572       -7.41721259586131        3.71730600093066
H            2.29081198382004       -8.74045628306314        1.86880219940142
H            0.43969850121647       -7.86039260488196        0.55056023180644
H           -0.69483346931082       -2.58127882211541       -1.96648017840797
H            0.65074975131494       -3.15760702465308       -0.98267198726196
H            0.94593979634283       -2.06858100677336       -2.33893663941651
H            2.04473908930895       -0.37420637531318       -1.03644852940180
