76
 energy: -15.140320620685 gnorm: 0.000879828597 xtb: 6.5.0 (97a52f5)
C            2.17595435668899        1.80917890972496        0.51958431246604
C            1.03657005525872        0.86073455787702        0.37949728035131
C           -0.12934699519721        1.04001434291760        1.10899195607915
C           -1.18440615276790        0.14985323742977        1.01857603227535
C           -2.42039082572764        0.37952226099118        1.81444825613920
C           -1.07027988463710       -0.94701832777816        0.16120866335421
B           -2.25509505144225       -1.96347555739126        0.05186444207582
C           -3.71204867273738       -1.46357647886859       -0.22202569779756
C           -3.97382705138780       -0.58825361115511       -1.27708884179933
C           -2.88227912864623       -0.12123320670932       -2.17322745215032
C           -5.26974216607246       -0.14326611187116       -1.46867151602659
C           -6.31039742093513       -0.56716000929617       -0.65428095011295
C           -7.70173483276950       -0.08030251236120       -0.86635369590163
C           -6.02835079055216       -1.44995426624426        0.37739602231614
C           -4.74262214541116       -1.90146682388167        0.61303151082226
C           -4.48602653382285       -2.86231791100365        1.72085117448257
C           -2.00027153189591       -3.49204430308924        0.11288439280024
C           -2.62867937479486       -4.24258691409858       -0.84175862417726
C           -2.53896777477806       -5.64410484041602       -0.84335626997168
C           -3.23062775739563       -6.40777027437869       -1.82755107763658
C           -3.27801093096245       -7.75679479555287       -1.75879251387579
C           -2.71832694061411       -8.44935090512026       -0.64693505265885
C           -2.91610296855674       -9.83291868551810       -0.48449582661305
C           -2.51268444281636      -10.46960319344566        0.65631203201260
C           -1.92107224623471       -9.74336500131435        1.68596538921238
C           -1.69723315212052       -8.40150698056305        1.54387757651400
C           -2.02506116887017       -7.72240362662111        0.35348927555028
C           -1.78560563795726       -6.30128277775655        0.16371405961525
C           -0.90466865763207       -5.50149366652315        0.98915941278788
C           -1.12876542160197       -4.10560010240716        1.05411941201110
C           -0.46489931138116       -3.33083724631685        2.03979995715104
C            0.47033067529789       -3.87540268598925        2.85319809593277
C            0.88717890105274       -5.22290455936557        2.67809762550704
C            1.97861353532424       -5.74472714800968        3.39958447827669
C            2.47512295351761       -6.98610189317803        3.11673346752187
C            1.91729611400254       -7.74122255741636        2.08830228915697
C            0.84175313225662       -7.26693141865216        1.38914500868379
C            0.25020460269078       -6.02712248988944        1.70119544834309
C            0.09521736762763       -1.14757287604112       -0.58347668214113
C            0.25413124395507       -2.32535217528637       -1.47959142728464
C            1.13507806959088       -0.24530295413597       -0.45129675063632
H            1.82573928180473        2.81256411802095        0.76638558597798
H            2.74766445730135        1.87726013636726       -0.40722035790441
H            2.85428655686494        1.48530341541349        1.31031144506069
H           -0.21149412975997        1.88964402960730        1.76363384399358
H           -2.24523323155695        1.08689097457164        2.62623797534213
H           -2.77614946447742       -0.54942601422217        2.25953772209733
H           -3.21711820556376        0.78142158412490        1.18716629851293
H           -2.20544365865760       -0.93977150452444       -2.41967060824055
H           -2.29923711709849        0.66904687718859       -1.69713217370485
H           -3.27894586550465        0.27204618857994       -3.11098432309282
H           -5.47619393612233        0.54428112488914       -2.26974985385868
H           -7.78374535678522        0.50602566894991       -1.78273520338553
H           -8.02233051714058        0.55085519583697       -0.03607643527448
H           -8.39907839980706       -0.91596328760701       -0.94297447735959
H           -6.82976783425546       -1.78778866699966        1.01065946007330
H           -5.17339376199755       -2.69928051290131        2.55197865850002
H           -3.47166156931331       -2.76090357301747        2.10693006540573
H           -4.61062414493045       -3.89015980157028        1.37730147209641
H           -3.24334498190458       -3.75099619023705       -1.57395121893257
H           -3.71908181686527       -5.88805048653552       -2.63411415206448
H           -3.80163407993727       -8.32180968744275       -2.51072857190198
H           -3.41609330857181      -10.38312723340980       -1.26335846834413
H           -2.67740108633378      -11.52848417544568        0.77251667903782
H           -1.64333693048837      -10.24192920969092        2.60048746203772
H           -1.28297597807168       -7.84322344669543        2.36482343468548
H           -0.71299630577600       -2.28850270364987        2.12964604225958
H            0.96362370541625       -3.27165368545901        3.59541935536284
H            2.43610530004811       -5.13929628635128        4.16341907241002
H            3.31643993680399       -7.37165720575807        3.66941152392011
H            2.33922000401044       -8.70191810870032        1.84114377195603
H            0.44742318611479       -7.83993504060459        0.56840726983564
H           -0.69889506930981       -2.62212310652347       -1.91727719326713
H            0.65148302726509       -3.17919302663993       -0.92880910500649
H            0.93885660971362       -2.10742809236136       -2.30032306504650
H            2.04266864742123       -0.40405268852333       -1.00661712386635
