114
 energy: -21.606988525311 gnorm: 0.000340234296 xtb: 6.5.0 (97a52f5)
C            2.55314757492273       -1.38663960772386        0.64390388092876
C            1.29420765291081       -0.66104920057352        0.30809722667238
C            0.14352070509345       -1.37974849018213        0.02344423919344
C           -1.05510309679667       -0.75933279171855       -0.29275118452503
C           -2.25842916682527       -1.58873583536020       -0.58994989736696
C           -1.10497887292055        0.63124127105107       -0.35084978849577
C           -2.37398196288569        1.32976755557358       -0.70798485876987
C            0.04557439054227        1.38051538736300       -0.04478230244890
C           -0.00767351946022        2.86655755581253       -0.09015990239889
C           -0.60749791659673        3.56672273582815        0.94832490121216
C           -0.69002302408265        4.95283412985008        0.96323766726987
C           -1.35337771177129        5.64139977627468        2.10304628549798
C           -0.66459257635085        5.80348967611016        3.31876527050190
C            0.72138682808538        5.27118202791682        3.46538986219764
C           -1.29430425761472        6.43982114694639        4.38560123658150
C           -0.60420022827207        6.61773956998587        5.69564143186131
C           -2.57566216486023        6.93989133181156        4.21305944162878
C           -3.26482706184258        6.80819299128177        3.01754484202895
C           -4.64272612363773        7.36558003883105        2.89509893586118
C           -2.66267028438475        6.13543573983641        1.95739007593548
C           -3.38487286461799        5.96598766529347        0.66281391083543
C           -0.13833276391834        5.69031727527144       -0.11360571529261
C           -0.18084504066800        7.11083019328214       -0.14887289457437
C            0.34574697897503        7.80641173006063       -1.18508638872279
C            0.96731680282084        7.14614526334745       -2.27998459892250
C            1.52652173825366        7.86422572332921       -3.36620904725445
C            1.50662270502189        9.35150802441096       -3.39421282273837
C            2.41185931371615       10.07961559541222       -2.60034040126155
C            3.39380366212322        9.36163485700695       -1.73614473889712
C            2.36886307018940       11.47144642637343       -2.60992889666978
C            3.29996226970410       12.27871619375864       -1.77002398071767
C            1.46216475013764       12.11382491146466       -3.43856400580772
C            0.57766529475986       11.41623271581987       -4.24641428572408
C           -0.37516557871539       12.16643647616339       -5.11456515893305
C            0.58024879523584       10.02391036746993       -4.21189944260641
C           -0.37084142061304        9.24355237901129       -5.05583927612277
C            2.10259715049260        7.16271513552664       -4.41719422006500
C            2.16281144164188        5.77561137989104       -4.44434918414531
C            2.78377316649383        5.08512063246995       -5.60651102900043
C            1.96814388535362        4.46868132632603       -6.57328007226456
C            0.48279149952093        4.51642156369784       -6.43935131680169
C            2.55684284924556        3.79569317159105       -7.64079726985750
C            1.72729263221975        3.11353884286696       -8.67553182513799
C            3.93826242926153        3.78647649158671       -7.75468737110731
C            4.75966734162392        4.40818418424643       -6.82707541381424
C            6.23962420987062        4.35964876584615       -7.00469271903091
C            4.18447641102504        5.04510206445231       -5.73012730586123
C            5.04080290980138        5.70697155487295       -4.70325257572337
C            1.62713491949257        5.03905251271548       -3.35871927071379
C            1.67509230102637        3.61874760265703       -3.32022305433763
C            1.15226033773331        2.92332595467906       -2.28206176356872
C            0.53841594469193        3.58413344812274       -1.18326004173212
C            0.47317185973432        4.99881886012552       -1.18751572797396
C            1.02519873259952        5.73112259858712       -2.27973344828194
C            1.24578683602936        0.73062966857475        0.29696576219061
C            2.46431470372298        1.53042339491710        0.61611943895549
H            2.47539867736687       -2.44826264408308        0.40451504500339
H            2.77954217141369       -1.30275742849025        1.70782777446476
H            3.39892483718493       -0.98663037463935        0.08278265946310
H            0.18183340982855       -2.45458133451609        0.04918791104656
H           -2.11137401277289       -2.62543295664258       -0.28313186815069
H           -2.47846320900928       -1.58742131015805       -1.65855830092719
H           -3.13534103609090       -1.21335681849736       -0.06038517633342
H           -2.91610229447603        0.79528442430598       -1.48887999595986
H           -2.18189959321826        2.33587688547603       -1.08302514881724
H           -3.02689680234315        1.41708952144070        0.16160633216340
H           -1.02537520719596        3.01469032564922        1.77100707330817
H            1.20512422897736        5.14843154218665        2.49548968044140
H            0.71321746214807        4.29846558985586        3.95924644713083
H            1.34621410594935        5.94583629908211        4.05177174249497
H           -0.13497903580016        5.68865565430183        6.02258086207926
H           -1.30495595469227        6.92097898406714        6.47505260700229
H            0.16852565234748        7.38496465456439        5.62791270006185
H           -3.05061273334524        7.44787931323575        5.03389208390702
H           -4.87276721794767        8.04034490828804        3.72110482586758
H           -5.38750227171781        6.56831837008605        2.90123361742476
H           -4.75706642985060        7.93190701382657        1.96963424266022
H           -4.43288211613584        5.71092357596768        0.82395686890076
H           -2.94762209184477        5.16626596355524        0.06379937842579
H           -3.34416539438304        6.88268331632308        0.07285753109899
H           -0.64397949918732        7.63158861100488        0.67089251115675
H            0.29819481715205        8.88128566264659       -1.19284105271300
H            3.52834472439699        8.32829528592096       -2.05813109301062
H            3.05841132503841        9.34502919537429       -0.69818356854556
H            4.37391210355391        9.83890707238495       -1.76987158835087
H            3.34371902664946       11.89425746220981       -0.75000504270759
H            2.98014572939137       13.32029720024867       -1.71240834448153
H            4.30945032976650       12.26408316859201       -2.18352370292613
H            1.44572057213176       13.18937425809910       -3.45667766691580
H           -0.09647975059746       13.21846332725702       -5.19272613253575
H           -1.38800798161467       12.12125039817199       -4.71151771199258
H           -0.39151722593148       11.75751981257275       -6.12589862051071
H           -1.34995248189982        9.72198393090346       -5.09793567415330
H           -0.52205926876200        8.23882320972761       -4.65905583423909
H            0.00496889539758        9.14645702683223       -6.07539111617860
H            2.51786999142268        7.71463641336136       -5.24126698324152
H            0.16820736081423        5.31119057963173       -5.76187297263747
H            0.09754982902106        3.57410416232613       -6.04722523327856
H            0.00477653813760        4.70607881484632       -7.40117875353095
H            0.94062406322522        2.51316822515136       -8.21638356828891
H            2.33126006080204        2.44428347860704       -9.29016106362385
H            1.25749097653745        3.84050189407262       -9.33962616000155
H            4.38768540414079        3.28131597285280       -8.59149250041942
H            6.50783826280191        4.03244292053353       -8.01043509627444
H            6.69431172285697        3.66398636615601       -6.29782034686477
H            6.68678476686932        5.34296645437726       -6.85167485089235
H            5.94590906964076        5.13068896276844       -4.50836154019144
H            4.51499770037975        5.80854439232373       -3.75300311183600
H            5.33612639861567        6.70526628922300       -5.02934601919310
H            2.13965799875195        3.09758953722763       -4.13890310511757
H            1.19568438220792        1.84826911646686       -2.27627411499991
H            2.21005226714277        2.55869258358429        0.87614323782634
H            3.14277310086301        1.56175116749773       -0.23761181692805
H            3.00417518867325        1.10828361171389        1.46455853317716
