22
 energy: -3.868775811379 gnorm: 0.000684138733 xtb: 6.5.0 (97a52f5)
C            0.93450883984200       -0.04925076804667        0.05902404551903
C            2.42290272299645       -0.00983831469882        0.06134505030017
C            3.11097687261919        1.19341141448310        0.05989817913556
C            4.49988080067493        1.24264886125243        0.06217753232151
C            5.17932601525458        2.57001793313259        0.06011916055001
C            5.23051851944051        0.05318559589968        0.06635123354499
C            6.71890004879421        0.05163999547319        0.07009164733708
C            4.54511040845907       -1.17719723408029        0.06733223960744
O            5.19732077403116       -2.39962982058344        0.07106583825636
C            3.15010196731253       -1.18070024174495        0.06467232744723
H            0.50876487405184        0.95499527689294        0.05924479642332
H            0.55868974952445       -0.57075017957081        0.94036857465748
H            0.56138307988236       -0.56932132341792       -0.82429965656206
H            2.55339617074698        2.11323852738882        0.05680754704716
H            4.45545446587381        3.38605339675251        0.05581499443439
H            5.80795990522076        2.68748133339047       -0.82359993852869
H            5.80332050608007        2.69263609460112        0.94641491414579
H            7.13165931416891        1.05989801010940        0.06935390559250
H            7.10950171301118       -0.45715890758413       -0.81232011507877
H            7.10499348693786       -0.45389239903078        0.95636755156997
H            6.17006921335703       -2.26970504603854        0.07410065030198
H            2.64191055172013       -2.12749220457990        0.06532952197757
