21
 energy: -3.710876066009 gnorm: 0.000221513623 xtb: 6.5.0 (97a52f5)
C            2.19737748813538        1.84500593737374        0.03095312908924
C            1.05886017547795        0.88433798186982        0.02085509015496
C           -0.25473260009394        1.32975624542997        0.01575755271417
C           -1.31753486130060        0.43841411343075        0.01110078276879
C           -2.72678421075479        0.92133318163792        0.00631633797452
C           -1.04603906270103       -0.92095367524695        0.01200498306984
C            0.25699546010605       -1.39624533835865        0.01751969514007
C            0.54339827034482       -2.85812235740905        0.02421350886792
C            1.29799649398265       -0.48102781294588        0.02268438490494
H            1.84824124961316        2.87789915437580       -0.01004284421179
H            2.85244655608816        1.68090788034309       -0.82613270747585
H            2.79410773834971        1.73068677335962        0.93731959978795
H           -0.45311680510349        2.38701416838373        0.01629864754001
H           -2.77507192051149        2.01132754445599        0.01018182179212
H           -3.26411844586273        0.56114754675687        0.88506469384331
H           -3.25590173382879        0.56764138406080       -0.88000610000196
H           -1.86444141916436       -1.61925584126863        0.00990368423020
H           -0.37584656700574       -3.44494728148945       -0.00858154977539
H            1.08850837225059       -3.14313787284468        0.92548340896579
H            1.14904151864144       -3.13971220465007       -0.83865928512584
H            2.31300430333706       -0.83793952726473        0.02908516574699
