15
 energy: -2.346817139385 gnorm: 0.000977417050 xtb: 6.5.0 (97a52f5)
C            1.13300611690235        0.06169909333357       -0.02026801819669
C            2.62253205944460        0.09295586302210       -0.03543064825279
O            3.24491882825685       -0.84823711046506        0.42117141861058
N            3.29136279183508        1.18966857632337       -0.56747846717183
C            2.60206951664756        2.35130163875185       -1.13101115543047
C            4.74082668651622        1.18637369300328       -0.56587818988699
H            0.79029207989556       -0.86884032998628        0.43115786261452
H            0.72808326155146        0.11149262460586       -1.03061884946919
H            0.72808277633809        0.88605491760124        0.56601268321564
H            1.52208234223366        2.24392912118947       -1.07892323324609
H            2.88395557589886        2.47697614461142       -2.17443380074219
H            2.88395444997680        3.24859958927205       -0.58385307705438
H            5.09643981019094        0.26021316887702       -0.11656929663547
H            5.11925605497656        2.02647260083651        0.01322096879644
H            5.11925764933540        1.25154040902361       -1.58414819715109
