43
 energy: -8.204652674776 gnorm: 0.000435460132 xtb: 6.5.0 (97a52f5)
C           -2.47982995127237        0.43532116380916        0.18401152039240
C           -1.05163865714136        0.07467314330562        0.12752789318790
C           -0.56558001713173       -1.18065135624996        0.02059644523420
C            0.86951176728086       -1.25500989867701       -0.03031634262031
C            1.59297043531955       -2.54191264093074       -0.15068379220565
C            1.39430701423432       -3.43638788231751       -1.15007933397999
C            0.50618194651600       -3.37149863513461       -2.31231251394107
C           -0.22293095381154       -4.53832730933001       -2.74295596320558
C           -1.01744266086068       -4.34303090808919       -3.81551451799140
C           -1.86398588209680       -5.36879023952531       -4.45130595331843
S           -0.88521200263485       -2.69159221908323       -4.34465751654726
C            0.28746431005003       -2.28986324438569       -3.13151656431267
C            0.92906849371369       -0.96572886740143       -3.05686465340005
S            2.38959792821867       -4.92013670783543       -0.86776612610858
O            1.42993368221728       -6.05848340579304       -0.61556023446819
O            3.49865240511552       -4.96113088934638       -1.89081480735662
C            3.03627159278971       -4.27263033930205        0.67264902049071
C            3.90584888195980       -4.86453661801500        1.55351183733190
C            4.26229990181038       -4.18066921890922        2.70052863646918
C            3.74064018086813       -2.92332862687527        2.95184360217532
C            2.86774964371848       -2.33475093576825        2.06067837745453
C            2.51540579356640       -3.01126801433556        0.89417472348233
C            1.46912004387069       -0.02464184021451        0.03109622330933
C            2.91752936357932        0.25143218699884       -0.02434971824354
S            0.26328670282172        1.21331087290529        0.17854339579363
H           -3.00139567034158       -0.15345281285943        0.93977845374660
H           -2.96253636758924        0.25755204693642       -0.77792373677338
H           -2.60352990302931        1.48965882911512        0.43415350487837
H           -1.19314890411039       -2.05589750314283       -0.03218277868355
H           -0.12441203166174       -5.48665877848841       -2.23769183944974
H           -2.52047480751731       -5.84051505140312       -3.71905529353037
H           -1.25163346097960       -6.14701465910758       -4.90852957284734
H           -2.48763749425579       -4.92854873402169       -5.23010534722768
H            1.06610077831711       -0.54845109659646       -4.05509208534479
H            1.91091076761373       -1.03234698673299       -2.58704681625112
H            0.31784776252547       -0.26747898048538       -2.48456202967126
H            4.29288248939365       -5.84701702667290        1.34286024116997
H            4.94314214196107       -4.63157430828962        3.40347163958909
H            4.01599737492244       -2.40115896658426        3.85316724108020
H            2.44550132826001       -1.36624982840613        2.26073974373033
H            3.48066402725290       -0.63905606327990       -0.30668925096839
H            3.28564166342537        0.59267318653405        0.94375028043874
H            3.13330034311992        1.02931916398895       -0.75760599150199
